data_1
_audit_creation_method   'vasp2cif'
_cell_length_a    17.52789999999977
_cell_length_b    17.52789999999977
_cell_length_c    15.0
_cell_angle_alpha    90.0
_cell_angle_beta    90.0
_cell_angle_gamma    119.99999999999916

_symmetry_space_group_name_H-M    'P 1'
loop_
_atom_site_label
_atom_site_type_symbol
_atom_site_fract_x
_atom_site_fract_y
_atom_site_fract_z
_atom_site_occupancy
Al2   Al   0.427612233417582   0.470905935884419   0.111036283268024   1.0000000
B2   B   0.909323445623767   0.956026591653799   0.110653107981309   1.0000000
B2   B   0.906712538688075   0.098014038787029   0.110822973995731   1.0000000
B2   B   0.905389573617517   0.240438077812250   0.110834020771786   1.0000000
B2   B   0.904124818035633   0.382415226325133   0.110768180003438   1.0000000
B2   B   0.903107010100432   0.524127360833504   0.110735020240927   1.0000000
B2   B   0.907060799125438   0.667076078585252   0.110785212093565   1.0000000
B2   B   0.910661815285051   0.812984151316141   0.110701688112301   1.0000000
B2   B   0.049248497209499   0.950431926682175   0.110597424051038   1.0000000
B2   B   0.047385021814239   0.093213377200935   0.110734139084722   1.0000000
B2   B   0.047731495484423   0.237991876632518   0.110740950765032   1.0000000
B2   B   0.048391068883526   0.381147165089464   0.110660162084652   1.0000000
B2   B   0.048915625386302   0.523011382760970   0.110667725917277   1.0000000
B2   B   0.049609947675743   0.664936052825799   0.110759498850717   1.0000000
B2   B   0.049895379298931   0.807581542657294   0.110682139850815   1.0000000
B2   B   0.191106021991331   0.947673019265993   0.110632532429427   1.0000000
B2   B   0.187369321295830   0.087462127259704   0.110767600656523   1.0000000
B2   B   0.185386895469972   0.229836002042620   0.110845137751053   1.0000000
B2   B   0.191002024234110   0.378688305184340   0.110631305172421   1.0000000
B2   B   0.194562839422861   0.521840081997815   0.110600764261626   1.0000000
B2   B   0.194056670765065   0.664174804490823   0.110684575502647   1.0000000
B2   B   0.192721647618049   0.806189283745240   0.110671002469778   1.0000000
B2   B   0.334799898569059   0.948365208688374   0.110677714961652   1.0000000
B2   B   0.332192283292537   0.087672425465969   0.110732130537472   1.0000000
B2   B   0.324920753847840   0.220902449596083   0.111200826095930   1.0000000
B2   B   0.320954481983263   0.357529224828045   0.111301660156224   1.0000000
B2   B   0.340759612735003   0.522524088909982   0.110713976865942   1.0000000
B2   B   0.339553442642064   0.665511889736957   0.110678106821698   1.0000000
B2   B   0.336764912126299   0.807212276141865   0.110703395334302   1.0000000
B2   B   0.478691607690441   0.952036392744340   0.110753754583380   1.0000000
B2   B   0.476762384652704   0.093795389740542   0.110704125401928   1.0000000
B2   B   0.473370847342965   0.234544322124745   0.110727086284232   1.0000000
B2   B   0.461639728412683   0.369226721833735   0.111261966993694   1.0000000
B2   B   0.485772814939104   0.667438075771512   0.110647433572063   1.0000000
B2   B   0.481079943175046   0.809935864394641   0.110787587379141   1.0000000
B2   B   0.622324771078366   0.956595347639751   0.110775002333963   1.0000000
B2   B   0.620374669505646   0.098209430080270   0.110724906080237   1.0000000
B2   B   0.617997984098665   0.241010972851117   0.110651898575549   1.0000000
B2   B   0.612913995340672   0.385011882015580   0.110599141710886   1.0000000
B2   B   0.617907878900279   0.544187063031200   0.110550546064768   1.0000000
B2   B   0.638054019511343   0.686107314747641   0.110783806436944   1.0000000
B2   B   0.625771393154852   0.817108888176243   0.110818163646106   1.0000000
B2   B   0.766291888205977   0.958020873077099   0.110728349363389   1.0000000
B2   B   0.763761434512474   0.099209765598875   0.110769323245485   1.0000000
B2   B   0.761834577107431   0.241275474350529   0.110791369505870   1.0000000
B2   B   0.759049344908796   0.383556961267544   0.110687887857396   1.0000000
B2   B   0.756524175446094   0.526511245013300   0.110656732513725   1.0000000
B2   B   0.772199859899813   0.675952631935812   0.110793989429685   1.0000000
B2   B   0.771951012638444   0.819434073398032   0.110727680136792   1.0000000
N2   N   0.955885681871517   0.906856265258956   0.110621677149055   1.0000000
N2   N   0.953878156296980   0.049593255728653   0.110741925520478   1.0000000
N2   N   0.952915533321511   0.192490180878116   0.110834368487468   1.0000000
N2   N   0.952591817810269   0.335134134744922   0.110766011889092   1.0000000
N2   N   0.952360322926478   0.477127814100066   0.110697261298094   1.0000000
N2   N   0.954045622501422   0.618971740995228   0.110773985754811   1.0000000
N2   N   0.955480311541587   0.762314194322120   0.110744962113141   1.0000000
N2   N   0.096491804908168   0.902040288978473   0.110571862634508   1.0000000
N2   N   0.093775911667248   0.043810172022715   0.110615552723306   1.0000000
N2   N   0.092058976954697   0.186753722480892   0.110760574008802   1.0000000
N2   N   0.095220655842523   0.332844608330282   0.110596141291724   1.0000000
N2   N   0.097572515067951   0.475993208940971   0.110581248001321   1.0000000
N2   N   0.097906622868076   0.617870810738394   0.110693722846476   1.0000000
N2   N   0.097490095412763   0.759784429375261   0.110704992689149   1.0000000
N2   N   0.239600062154603   0.900881713400006   0.110614486087370   1.0000000
N2   N   0.237030211393391   0.041474915486467   0.110692515833026   1.0000000
N2   N   0.231287749940455   0.179831019521152   0.110962511301054   1.0000000
N2   N   0.230132720165410   0.323248799393157   0.110753270844289   1.0000000
N2   N   0.242438573716674   0.474139931675690   0.110601041750091   1.0000000
N2   N   0.242791065279460   0.617514775494002   0.110627931578512   1.0000000
N2   N   0.241184856774029   0.759406171551007   0.110679122532514   1.0000000
N2   N   0.383497649595662   0.902382154008990   0.110689097827968   1.0000000
N2   N   0.381588073682215   0.042750174054455   0.110668664362715   1.0000000
N2   N   0.378148096673687   0.180642518519555   0.110823811951762   1.0000000
N2   N   0.368237059396406   0.310969718766988   0.111708563329766   1.0000000
N2   N   0.388943710086846   0.619849645435945   0.110644239949010   1.0000000
N2   N   0.385654287575768   0.761223164368003   0.110721513042145   1.0000000
N2   N   0.527337539951432   0.905880159662627   0.110776073817454   1.0000000
N2   N   0.525379754224321   0.047574785688940   0.110719447029133   1.0000000
N2   N   0.523017851368332   0.189072799489129   0.110634535084964   1.0000000
N2   N   0.517494675654644   0.329660994734035   0.110718990159115   1.0000000
N2   N   0.536962794192780   0.547933168341741   0.110167537837063   1.0000000
N2   N   0.547041202221123   0.633896074080004   0.110442544759804   1.0000000
N2   N   0.530805149167807   0.764529059185540   0.110795652435937   1.0000000
N2   N   0.671540768853700   0.911488008929294   0.110753253067066   1.0000000
N2   N   0.668821979254539   0.051611331086523   0.110710954975676   1.0000000
N2   N   0.666708286237469   0.193663178571117   0.110716178132748   1.0000000
N2   N   0.663420735304040   0.337124937962891   0.110575152596448   1.0000000
N2   N   0.658577242198925   0.482502974991805   0.110535179565814   1.0000000
N2   N   0.681496497167862   0.636171323671356   0.110848008591980   1.0000000
N2   N   0.679444088630169   0.777402121956747   0.110855177784346   1.0000000
N2   N   0.816103367411136   0.912585842983803   0.110615943997285   1.0000000
N2   N   0.812146349587475   0.052339739348898   0.110770761296549   1.0000000
N2   N   0.810236409932874   0.193989655047973   0.110795148465090   1.0000000
N2   N   0.808366480131942   0.336247752357540   0.110772438714693   1.0000000
N2   N   0.806391143665529   0.478600416571953   0.110689381033484   1.0000000
N2   N   0.812554687223372   0.622070158335465   0.110713717883052   1.0000000
N2   N   0.818001427944399   0.770107325349088   0.110690988979358   1.0000000


