data_1
_audit_creation_method   'vasp2cif'
_cell_length_a    14.93631414619966
_cell_length_b    14.936314146199727
_cell_length_c    13.341276283792837
_cell_angle_alpha    90.0
_cell_angle_beta    90.0
_cell_angle_gamma    119.99999999999984

_symmetry_space_group_name_H-M    'P 1'
loop_
_atom_site_label
_atom_site_type_symbol
_atom_site_fract_x
_atom_site_fract_y
_atom_site_fract_z
_atom_site_occupancy
In2   In   0.444444444444443   0.388888888888886   0.375000000000000   1.0000000
N2   N   0.111081225740082   0.055529704112772   0.124746647880963   1.0000000
N2   N   0.611142231967075   0.555601840405794   0.124966176369452   1.0000000
N2   N   0.444448478372690   0.055529704112772   0.124746647880963   1.0000000
N2   N   0.944450181058847   0.555559929344807   0.124995535228560   1.0000000
N2   N   0.777777777777779   0.055555555555557   0.124986429398110   1.0000000
N2   N   0.111111111111114   0.722222222222221   0.624983932989663   1.0000000
N2   N   0.444448478372690   0.722252107593254   0.625253352119036   1.0000000
N2   N   0.277731492927541   0.222191101366260   0.625033823630548   1.0000000
N2   N   0.777803629220565   0.722252107593254   0.625253352119036   1.0000000
N2   N   0.611125314885427   0.222208018447910   0.625285149931912   1.0000000
N2   N   0.944431121558253   0.222217681658297   0.625063445557388   1.0000000
N2   N   0.277773403988529   0.722223585047376   0.124995535228560   1.0000000
N2   N   0.111082703562491   0.222208018447910   0.124714850068087   1.0000000
N2   N   0.444459608438719   0.222191101366260   0.124966176369452   1.0000000
N2   N   0.611125314885427   0.722250629770845   0.124714850068087   1.0000000
N2   N   0.944450181058847   0.722223585047376   0.124995535228560   1.0000000
N2   N   0.777786560100043   0.222217681658297   0.124936554442613   1.0000000
N2   N   0.111109748285959   0.888883152274482   0.625004464771441   1.0000000
N2   N   0.444453165625961   0.888893249479647   0.625024951226804   1.0000000
N2   N   0.277731492927541   0.388873724894610   0.625033823630548   1.0000000
N2   N   0.611142231967075   0.388873724894610   0.625033823630548   1.0000000
N2   N   0.777786560100043   0.888902211775076   0.625063445557388   1.0000000
N2   N   0.944440083853681   0.388880167707368   0.625024951226804   1.0000000
N2   N   0.111081225740082   0.388884854960639   0.124746647880963   1.0000000
N2   N   0.277773403988529   0.888883152274482   0.124995535228560   1.0000000
N2   N   0.611115651675040   0.888902211775076   0.124936554442613   1.0000000
N2   N   0.444444444444443   0.388888888888886   0.129700064612473   1.0000000
N2   N   0.944440083853681   0.888893249479647   0.124975048773196   1.0000000
N2   N   0.777803629220565   0.388884854960639   0.124746647880963   1.0000000
N2   N   0.277768334092779   0.555564999240555   0.625189746837193   1.0000000
N2   N   0.111081225740082   0.055529704112772   0.625253352119036   1.0000000
N2   N   0.611142231967075   0.555601840405794   0.625033823630548   1.0000000
N2   N   0.444448478372690   0.055529704112772   0.625253352119036   1.0000000
N2   N   0.944450181058847   0.555559929344807   0.625004464771441   1.0000000
N2   N   0.111109748285959   0.555559929344807   0.124995535228560   1.0000000
N2   N   0.777777777777779   0.055555555555557   0.625013570601888   1.0000000
N2   N   0.277768334092779   0.055536668185558   0.124810253162807   1.0000000
N2   N   0.444459608438719   0.555601840405794   0.124966176369452   1.0000000
N2   N   0.777796665147777   0.555564999240555   0.124810253162807   1.0000000
N2   N   0.611115651675040   0.055546773233292   0.124936554442613   1.0000000
N2   N   0.444459608438719   0.555601840405794   0.625033823630548   1.0000000
N2   N   0.944431121558253   0.055546773233292   0.124936554442613   1.0000000
N2   N   0.277773403988529   0.722223585047376   0.625004464771441   1.0000000
N2   N   0.111082703562491   0.222208018447910   0.625285149931912   1.0000000
N2   N   0.444459608438719   0.222191101366260   0.625033823630548   1.0000000
N2   N   0.611125314885427   0.722250629770845   0.625285149931912   1.0000000
N2   N   0.944450181058847   0.722223585047376   0.625004464771441   1.0000000
N2   N   0.777786560100043   0.222217681658297   0.625063445557388   1.0000000
N2   N   0.111111111111114   0.722222222222221   0.125016067010336   1.0000000
N2   N   0.444448478372690   0.722252107593254   0.124746647880963   1.0000000
N2   N   0.277731492927541   0.222191101366260   0.124966176369452   1.0000000
N2   N   0.777803629220565   0.722252107593254   0.124746647880963   1.0000000
N2   N   0.611125314885427   0.222208018447910   0.124714850068087   1.0000000
N2   N   0.944431121558253   0.222217681658297   0.124936554442613   1.0000000
N2   N   0.111081225740082   0.388884854960639   0.625253352119036   1.0000000
N2   N   0.277773403988529   0.888883152274482   0.625004464771441   1.0000000
N2   N   0.611115651675040   0.888902211775076   0.625063445557388   1.0000000
N2   N   0.444444444444443   0.388888888888886   0.620299935387527   1.0000000
N2   N   0.944440083853681   0.888893249479647   0.625024951226804   1.0000000
N2   N   0.111109748285959   0.888883152274482   0.124995535228560   1.0000000
N2   N   0.777803629220565   0.388884854960639   0.625253352119036   1.0000000
N2   N   0.444453165625961   0.888893249479647   0.124975048773196   1.0000000
N2   N   0.277731492927541   0.388873724894610   0.124966176369452   1.0000000
N2   N   0.277768334092779   0.555564999240555   0.124810253162807   1.0000000
N2   N   0.611142231967075   0.388873724894610   0.124966176369452   1.0000000
N2   N   0.777786560100043   0.888902211775076   0.124936554442613   1.0000000
N2   N   0.944440083853681   0.388880167707368   0.124975048773196   1.0000000
N2   N   0.111109748285959   0.555559929344807   0.625004464771441   1.0000000
N2   N   0.277768334092779   0.055536668185558   0.625189746837193   1.0000000
N2   N   0.777796665147777   0.555564999240555   0.625189746837193   1.0000000
N2   N   0.611115651675040   0.055546773233292   0.625063445557388   1.0000000
N2   N   0.944431121558253   0.055546773233292   0.625063445557388   1.0000000
N2   N   0.053942178512258   0.110078901484498   0.375000000000000   1.0000000
N2   N   0.556274480778459   0.612548961556920   0.375000000000000   1.0000000
N2   N   0.387210689692634   0.101451969279669   0.375000000000000   1.0000000
N2   N   0.892224144240253   0.612778738786798   0.375000000000000   1.0000000
N2   N   0.722517204629703   0.110816128703632   0.375000000000000   1.0000000
N2   N   0.055556485005621   0.777776848327715   0.875000000000000   1.0000000
N2   N   0.388893573166955   0.777779681204652   0.875000000000000   1.0000000
N2   N   0.222227221760598   0.277780277546967   0.875000000000000   1.0000000
N2   N   0.722223155670833   0.777774870477530   0.875000000000000   1.0000000
N2   N   0.555553055786368   0.277780277546967   0.875000000000000   1.0000000
N2   N   0.888887455871237   0.277774911742480   0.875000000000000   1.0000000
N2   N   0.221585299619330   0.777459316476333   0.375000000000000   1.0000000
N2   N   0.053942178512258   0.277196610361097   0.375000000000000   1.0000000
N2   N   0.372577061029514   0.245154122059034   0.375000000000000   1.0000000
N2   N   0.556136722972240   0.779391154821078   0.375000000000000   1.0000000
N2   N   0.891595678486840   0.779973177924618   0.375000000000000   1.0000000
N2   N   0.723254431848838   0.277196610361097   0.375000000000000   1.0000000
N2   N   0.055553652128683   0.944447225295638   0.875000000000000   1.0000000
N2   N   0.388893573166955   0.944447225295638   0.875000000000000   1.0000000
N2   N   0.222219919414198   0.444443076015646   0.875000000000000   1.0000000
N2   N   0.555534922809655   0.444434128071492   0.875000000000000   1.0000000
N2   N   0.722223817808734   0.944447635617466   0.875000000000000   1.0000000
N2   N   0.888886108037691   0.444439760166374   0.875000000000000   1.0000000
N2   N   0.053360155408718   0.444955833895558   0.375000000000000   1.0000000
N2   N   0.220554594546537   0.941109189093076   0.375000000000000   1.0000000
N2   N   0.556026806250952   0.944680069792141   0.375000000000000   1.0000000
N2   N   0.372577061029514   0.460756272303814   0.375000000000000   1.0000000
N2   N   0.888653263541188   0.944680069792141   0.375000000000000   1.0000000
N2   N   0.731881364053666   0.446122643640693   0.375000000000000   1.0000000
N2   N   0.222219932579263   0.611113400754072   0.875000000000000   1.0000000
N2   N   0.055558462855805   0.111110177662502   0.875000000000000   1.0000000
N2   N   0.555553055786368   0.611106111572737   0.875000000000000   1.0000000
N2   N   0.388890257317683   0.111110176731887   0.875000000000000   1.0000000
N2   N   0.888893468174801   0.611113400754072   0.875000000000000   1.0000000
N2   N   0.055874016857003   0.611748033714007   0.375000000000000   1.0000000
N2   N   0.722223817808734   0.111109515524604   0.875000000000000   1.0000000
N2   N   0.214241279587027   0.101451969279669   0.375000000000000   1.0000000
N2   N   0.387210689692634   0.619092053746306   0.375000000000000   1.0000000
N2   N   0.731881364053666   0.619092053746306   0.375000000000000   1.0000000
N2   N   0.556136722972240   0.110078901484498   0.375000000000000   1.0000000
N2   N   0.388890257317683   0.611113413919137   0.875000000000000   1.0000000
N2   N   0.888298924073920   0.110816128703632   0.375000000000000   1.0000000
N2   N   0.222220363322093   0.777776848327715   0.875000000000000   1.0000000
N2   N   0.055558462855805   0.277781618526638   0.875000000000000   1.0000000
N2   N   0.388899205261837   0.277798410523682   0.875000000000000   1.0000000
N2   N   0.555551714806697   0.777774870477530   0.875000000000000   1.0000000
N2   N   0.888886108037691   0.777779681204652   0.875000000000000   1.0000000
N2   N   0.722223155670833   0.277781618526638   0.875000000000000   1.0000000
N2   N   0.055874016857003   0.777459316476333   0.375000000000000   1.0000000
N2   N   0.388377499437770   0.779973177924618   0.375000000000000   1.0000000
N2   N   0.220784371776418   0.277058852554876   0.375000000000000   1.0000000
N2   N   0.723254431848838   0.779391154821078   0.375000000000000   1.0000000
N2   N   0.556274480778459   0.277058852554876   0.375000000000000   1.0000000
N2   N   0.888653263541188   0.277306527082384   0.375000000000000   1.0000000
N2   N   0.055553652128683   0.444439760166374   0.875000000000000   1.0000000
N2   N   0.222219932579263   0.944439865158527   0.875000000000000   1.0000000
N2   N   0.555558421590856   0.944445877462091   0.875000000000000   1.0000000
N2   N   0.388899205261837   0.444434128071492   0.875000000000000   1.0000000
N2   N   0.888887455871237   0.944445877462091   0.875000000000000   1.0000000
N2   N   0.053360155408718   0.941737654846488   0.375000000000000   1.0000000
N2   N   0.722223156601450   0.444443076015646   0.875000000000000   1.0000000
N2   N   0.388377499437770   0.941737654846488   0.375000000000000   1.0000000
N2   N   0.214241279587027   0.446122643640693   0.375000000000000   1.0000000
N2   N   0.220554594546537   0.612778738786798   0.375000000000000   1.0000000
N2   N   0.588179211274301   0.460756272303814   0.375000000000000   1.0000000
N2   N   0.722517204629703   0.945034409259409   0.375000000000000   1.0000000
N2   N   0.891595678486840   0.444955833895558   0.375000000000000   1.0000000
N2   N   0.055556485005621   0.611112970011243   0.875000000000000   1.0000000
N2   N   0.222219919414198   0.111110176731887   0.875000000000000   1.0000000
N2   N   0.722223156601450   0.611113413919137   0.875000000000000   1.0000000
N2   N   0.555551714806697   0.111110177662502   0.875000000000000   1.0000000
N2   N   0.888885697715863   0.111109515524604   0.875000000000000   1.0000000
B2   B   0.105962740367110   0.050868388194539   0.375000000000000   1.0000000
B2   B   0.622959604309396   0.565370044448298   0.375000000000000   1.0000000
B2   B   0.444905647827428   0.050868388194539   0.375000000000000   1.0000000
B2   B   0.945879673209813   0.555988456052342   0.375000000000000   1.0000000
B2   B   0.777777777777779   0.055555555555557   0.375000000000000   1.0000000
B2   B   0.111111111111114   0.722222222222221   0.875000000000000   1.0000000
B2   B   0.444444449807344   0.722235682089470   0.875000000000000   1.0000000
B2   B   0.277730653018806   0.222217643029631   0.875000000000000   1.0000000
B2   B   0.777791232282121   0.722235682089470   0.875000000000000   1.0000000
B2   B   0.611104423009078   0.222228910324259   0.875000000000000   1.0000000
B2   B   0.944420915777737   0.222235412115137   0.875000000000000   1.0000000
B2   B   0.277344877280995   0.723224550490808   0.375000000000000   1.0000000
B2   B   0.109670718643049   0.221502025988189   0.375000000000000   1.0000000
B2   B   0.442410440138901   0.210373729023939   0.375000000000000   1.0000000
B2   B   0.611831307345147   0.723662614690286   0.375000000000000   1.0000000
B2   B   0.945879673209813   0.723224550490808   0.375000000000000   1.0000000
B2   B   0.777985481780494   0.221509457128088   0.375000000000000   1.0000000
B2   B   0.111141627877627   0.888899448563586   0.875000000000000   1.0000000
B2   B   0.444479643082955   0.888906488208142   0.875000000000000   1.0000000
B2   B   0.277730653018806   0.388846343322505   0.875000000000000   1.0000000
B2   B   0.611115690303706   0.388846343322505   0.875000000000000   1.0000000
B2   B   0.777814496337400   0.888912417555591   0.875000000000000   1.0000000
B2   B   0.944426845125187   0.388853690250374   0.875000000000000   1.0000000
B2   B   0.105962740367110   0.388427685505900   0.375000000000000   1.0000000
B2   B   0.277344877280995   0.887453660123515   0.375000000000000   1.0000000
B2   B   0.611823876205247   0.889809357985735   0.375000000000000   1.0000000
B2   B   0.944143758944891   0.889189574388438   0.375000000000000   1.0000000
B2   B   0.782464945138798   0.388427685505900   0.375000000000000   1.0000000
B2   B   0.277752159138487   0.555581174194847   0.875000000000000   1.0000000
B2   B   0.111097651243868   0.055542101051214   0.875000000000000   1.0000000
B2   B   0.611115690303706   0.555602680314529   0.875000000000000   1.0000000
B2   B   0.444444449807344   0.055542101051214   0.875000000000000   1.0000000
B2   B   0.944433884769743   0.555575512647371   0.875000000000000   1.0000000
B2   B   0.110108782842529   0.555988456052342   0.375000000000000   1.0000000
B2   B   0.777777777777779   0.055555555555557   0.875000000000000   1.0000000
B2   B   0.275322530761495   0.050645061522989   0.375000000000000   1.0000000
B2   B   0.442410440138900   0.565370044448298   0.375000000000000   1.0000000
B2   B   0.782688271810346   0.558010802571841   0.375000000000000   1.0000000
B2   B   0.611823876205247   0.055347851552841   0.375000000000000   1.0000000
B2   B   0.444486990010824   0.555602680314529   0.875000000000000   1.0000000
B2   B   0.943523975347594   0.055347851552841   0.375000000000000   1.0000000
B2   B   0.277757820685966   0.722191705455712   0.875000000000000   1.0000000
B2   B   0.111124487315188   0.222228910324259   0.875000000000000   1.0000000
B2   B   0.444486990010824   0.222217643029631   0.875000000000000   1.0000000
B2   B   0.611104423009078   0.722208846018149   0.875000000000000   1.0000000
B2   B   0.944433884769743   0.722191705455712   0.875000000000000   1.0000000
B2   B   0.777814496337400   0.222235412115137   0.875000000000000   1.0000000
B2   B   0.111111111111114   0.722222222222221   0.375000000000000   1.0000000
B2   B   0.444905647827428   0.727370592966225   0.375000000000000   1.0000000
B2   B   0.267963288885039   0.210373729023940   0.375000000000000   1.0000000
B2   B   0.782464945138798   0.727370592966225   0.375000000000000   1.0000000
B2   B   0.611831307345147   0.221502025988189   0.375000000000000   1.0000000
B2   B   0.943523975347594   0.221509457128088   0.375000000000000   1.0000000
B2   B   0.111097651243868   0.388888883525984   0.875000000000000   1.0000000
B2   B   0.277757820685966   0.888899448563586   0.875000000000000   1.0000000
B2   B   0.611097921218199   0.888912417555591   0.875000000000000   1.0000000
B2   B   0.444444444444443   0.388888888888886   0.875000000000000   1.0000000
B2   B   0.944426845125187   0.888906488208142   0.875000000000000   1.0000000
B2   B   0.110108782842529   0.887453660123515   0.375000000000000   1.0000000
B2   B   0.777791232282121   0.388888883525984   0.875000000000000   1.0000000
B2   B   0.445045815443547   0.889189574388438   0.375000000000000   1.0000000
B2   B   0.267963288885039   0.390922893194428   0.375000000000000   1.0000000
B2   B   0.275322530761495   0.558010802571841   0.375000000000000   1.0000000
B2   B   0.622959604309396   0.390922893194428   0.375000000000000   1.0000000
B2   B   0.777985481780494   0.889809357985735   0.375000000000000   1.0000000
B2   B   0.944143758944891   0.388287517889782   0.375000000000000   1.0000000
B2   B   0.111141627877627   0.555575512647371   0.875000000000000   1.0000000
B2   B   0.277752159138487   0.055504318276976   0.875000000000000   1.0000000
B2   B   0.777829015056361   0.555581174194847   0.875000000000000   1.0000000
B2   B   0.611097921218199   0.055518836995936   0.875000000000000   1.0000000
B2   B   0.944420915777737   0.055518836995936   0.875000000000000   1.0000000
B2   B   0.055528071046185   0.111059720918621   0.124834737112742   1.0000000
B2   B   0.555614783457404   0.611229566914805   0.124896422802480   1.0000000
B2   B   0.388871166383136   0.110981963772407   0.124795616248985   1.0000000
B2   B   0.888923470054418   0.611128401693881   0.124947755354764   1.0000000
B2   B   0.722242402139391   0.111090931193946   0.124987008155039   1.0000000
B2   B   0.055574794584058   0.777758538749276   0.624994379273399   1.0000000
B2   B   0.388897951858304   0.777780503145907   0.625068784718588   1.0000000
B2   B   0.222103766418529   0.277718549875933   0.625103577197521   1.0000000
B2   B   0.722273612414715   0.777805262287151   0.625165262887257   1.0000000
B2   B   0.555614783457404   0.277718549875933   0.625103577197521   1.0000000
B2   B   0.888887554652096   0.277775109304201   0.625015057043779   1.0000000
B2   B   0.222183744165219   0.777758538749276   0.125005620726602   1.0000000
B2   B   0.055528071046185   0.277801683460900   0.124834737112742   1.0000000
B2   B   0.388713800419269   0.277427600838544   0.126235702185848   1.0000000
B2   B   0.555531649872437   0.777805262287151   0.124834737112742   1.0000000
B2   B   0.888882551287594   0.777780503145907   0.124931215281412   1.0000000
B2   B   0.722273612414715   0.277801683460900   0.124834737112742   1.0000000
B2   B   0.055552830187429   0.944450782045735   0.625068784718588   1.0000000
B2   B   0.388897951858304   0.944450782045735   0.625068784718588   1.0000000
B2   B   0.222110797389264   0.444462166950193   0.625204383751014   1.0000000
B2   B   0.555905732494792   0.444619532914060   0.623764297814153   1.0000000
B2   B   0.722242402139391   0.944484804278780   0.625012991844961   1.0000000
B2   B   0.888882551287594   0.444435381475024   0.625068784718588   1.0000000
B2   B   0.055552830187429   0.444435381475024   0.124931215281412   1.0000000
B2   B   0.222204931639455   0.944409863278911   0.124947755354764   1.0000000
B2   B   0.555558224029136   0.944445778681232   0.124984942956221   1.0000000
B2   B   0.388713800419269   0.444619532914060   0.126235702185848   1.0000000
B2   B   0.888887554652096   0.944445778681232   0.124984942956221   1.0000000
B2   B   0.722351369560929   0.444462166950193   0.124795616248985   1.0000000
B2   B   0.222204931639455   0.611128401693881   0.625052244645236   1.0000000
B2   B   0.055528071046185   0.111059720918621   0.625165262887257   1.0000000
B2   B   0.555614783457404   0.611229566914805   0.625103577197521   1.0000000
B2   B   0.388871166383136   0.110981963772407   0.625204383751014   1.0000000
B2   B   0.888923470054418   0.611128401693881   0.625052244645236   1.0000000
B2   B   0.055574794584058   0.611149589168116   0.125005620726602   1.0000000
B2   B   0.722242402139391   0.111090931193946   0.625012991844961   1.0000000
B2   B   0.222110797389264   0.110981963772407   0.124795616248985   1.0000000
B2   B   0.388871166383136   0.611222535944074   0.124795616248985   1.0000000
B2   B   0.722351369560929   0.611222535944074   0.124795616248985   1.0000000
B2   B   0.555531649872437   0.111059720918621   0.124834737112742   1.0000000
B2   B   0.388871166383136   0.611222535944074   0.625204383751014   1.0000000
B2   B   0.888848529054549   0.111090931193946   0.124987008155039   1.0000000
B2   B   0.222183744165219   0.777758538749276   0.624994379273399   1.0000000
B2   B   0.055528071046185   0.277801683460900   0.625165262887257   1.0000000
B2   B   0.388713800419269   0.277427600838544   0.623764297814153   1.0000000
B2   B   0.555531649872437   0.777805262287151   0.625165262887257   1.0000000
B2   B   0.888882551287594   0.777780503145907   0.625068784718588   1.0000000
B2   B   0.722273612414715   0.277801683460900   0.625165262887257   1.0000000
B2   B   0.055574794584058   0.777758538749276   0.125005620726602   1.0000000
B2   B   0.388897951858304   0.777780503145907   0.124931215281412   1.0000000
B2   B   0.222103766418529   0.277718549875933   0.124896422802480   1.0000000
B2   B   0.722273612414715   0.777805262287151   0.124834737112742   1.0000000
B2   B   0.555614783457404   0.277718549875933   0.124896422802480   1.0000000
B2   B   0.888887554652096   0.277775109304201   0.124984942956221   1.0000000
B2   B   0.055552830187429   0.444435381475024   0.625068784718588   1.0000000
B2   B   0.222204931639455   0.944409863278911   0.625052244645236   1.0000000
B2   B   0.555558224029136   0.944445778681232   0.625015057043779   1.0000000
B2   B   0.388713800419269   0.444619532914060   0.623764297814153   1.0000000
B2   B   0.888887554652096   0.944445778681232   0.625015057043779   1.0000000
B2   B   0.055552830187429   0.944450782045735   0.124931215281412   1.0000000
B2   B   0.722351369560929   0.444462166950193   0.625204383751014   1.0000000
B2   B   0.388897951858304   0.944450782045735   0.124931215281412   1.0000000
B2   B   0.222110797389264   0.444462166950193   0.124795616248985   1.0000000
B2   B   0.222204931639455   0.611128401693881   0.124947755354764   1.0000000
B2   B   0.555905732494792   0.444619532914060   0.126235702185848   1.0000000
B2   B   0.722242402139391   0.944484804278780   0.124987008155039   1.0000000
B2   B   0.888882551287594   0.444435381475024   0.124931215281412   1.0000000
B2   B   0.055574794584058   0.611149589168116   0.624994379273399   1.0000000
B2   B   0.222110797389264   0.110981963772407   0.625204383751014   1.0000000
B2   B   0.722351369560929   0.611222535944074   0.625204383751014   1.0000000
B2   B   0.555531649872437   0.111059720918621   0.625165262887257   1.0000000
B2   B   0.888848529054549   0.111090931193946   0.625012991844961   1.0000000


