data_1
_audit_creation_method   'vasp2cif'
_cell_length_a    17.52789999999977
_cell_length_b    17.52789999999977
_cell_length_c    15.0
_cell_angle_alpha    90.0
_cell_angle_beta    90.0
_cell_angle_gamma    119.99999999999916

_symmetry_space_group_name_H-M    'P 1'
loop_
_atom_site_label
_atom_site_type_symbol
_atom_site_fract_x
_atom_site_fract_y
_atom_site_fract_z
_atom_site_occupancy
B2   B   0.904118073676129   0.951746002127406   0.109522499917795   1.0000000
B2   B   0.905004778256215   0.094997242939769   0.110039101428158   1.0000000
B2   B   0.905303204697832   0.237882357652393   0.110146143208608   1.0000000
B2   B   0.905238125249873   0.380723826774980   0.108884213989330   1.0000000
B2   B   0.905003219695048   0.523643815933285   0.107124919442112   1.0000000
B2   B   0.904374115157451   0.666479035680239   0.108190666583531   1.0000000
B2   B   0.903897219197812   0.809022140382617   0.108416462261300   1.0000000
B2   B   0.047399679785014   0.952602341410986   0.109104293505702   1.0000000
B2   B   0.048256019068587   0.095883947519857   0.109522499917795   1.0000000
B2   B   0.048522183814750   0.238572159873817   0.110631423401334   1.0000000
B2   B   0.048212280964464   0.381130596035788   0.110955378794938   1.0000000
B2   B   0.047536318118985   0.523952963577609   0.110264204373833   1.0000000
B2   B   0.047171367067282   0.666852015755368   0.109590351086725   1.0000000
B2   B   0.047159155338652   0.809699872734949   0.109382206165765   1.0000000
B2   B   0.190302148461065   0.952842865857353   0.109382206165765   1.0000000
B2   B   0.190979880813370   0.096104801998172   0.108416462261300   1.0000000
B2   B   0.192574682725745   0.240255840884677   0.110882034926210   1.0000000
B2   B   0.191824226709626   0.382071050038998   0.111536600363336   1.0000000
B2   B   0.190168646899503   0.524492513353656   0.111238039531356   1.0000000
B2   B   0.189741928664733   0.667232343637441   0.110650776597366   1.0000000
B2   B   0.189992710841632   0.810009310354379   0.110381713911859   1.0000000
B2   B   0.333150005441616   0.952830654128714   0.109590351086725   1.0000000
B2   B   0.333522985516735   0.095627906038540   0.108190666583531   1.0000000
B2   B   0.334420442372869   0.239098192664859   0.111213549810778   1.0000000
B2   B   0.338232330241299   0.384862508190557   0.112579019736591   1.0000000
B2   B   0.332576659103927   0.526240984957185   0.104059296237716   1.0000000
B2   B   0.332119467854352   0.667882553342637   0.107089674506387   1.0000000
B2   B   0.332769677559557   0.810260092531305   0.110650776597366   1.0000000
B2   B   0.476049057619405   0.952465703076987   0.110264204373833   1.0000000
B2   B   0.476358205263737   0.094998801500926   0.107124919442112   1.0000000
B2   B   0.476786856679870   0.237420695491351   0.108844324904492   1.0000000
B2   B   0.475452959986504   0.373985389952593   0.142642325338784   1.0000000
B2   B   0.473761036239810   0.667425362093058   0.104059296237716   1.0000000
B2   B   0.475509507843324   0.809833374296492   0.111238039531356   1.0000000
B2   B   0.618871425160209   0.951789740231525   0.110955378794938   1.0000000
B2   B   0.619278194421025   0.094763895946115   0.108884213989330   1.0000000
B2   B   0.619548649051173   0.237449580211515   0.106774092579617   1.0000000
B2   B   0.620077370578941   0.379924650617101   0.115483940462936   1.0000000
B2   B   0.626016631243411   0.524549061210480   0.142642325338783   1.0000000
B2   B   0.615139513005433   0.661769690955708   0.112579019736591   1.0000000
B2   B   0.617930971157009   0.808177794486390   0.111536600363336   1.0000000
B2   B   0.761429861322190   0.951479837381234   0.110631423401334   1.0000000
B2   B   0.762119663543631   0.094698816498155   0.110146143208608   1.0000000
B2   B   0.762389205523581   0.237612815672429   0.108632607154149   1.0000000
B2   B   0.762552440984497   0.380453372144820   0.106774092579617   1.0000000
B2   B   0.762581325704648   0.523215164517147   0.108844324904499   1.0000000
B2   B   0.760903828531126   0.665581578824135   0.111213549810778   1.0000000
B2   B   0.759746180311340   0.807427338470245   0.110882034926210   1.0000000
N2   N   0.951904680255049   0.904410417084599   0.108944522103316   1.0000000
N2   N   0.952575607544965   0.047425794373009   0.109568365620795   1.0000000
N2   N   0.953054418901816   0.190405549297934   0.110250539117123   1.0000000
N2   N   0.952954283944299   0.333193926685140   0.110150735774421   1.0000000
N2   N   0.952518045513551   0.476021857603230   0.108710779725335   1.0000000
N2   N   0.952068645497618   0.618948228993456   0.108076136372989   1.0000000
N2   N   0.951821225059833   0.761758486203872   0.108546016065538   1.0000000
N2   N   0.094975027260272   0.905026374657727   0.109461374473790   1.0000000
N2   N   0.095590984833392   0.048096721662968   0.108944522103316   1.0000000
N2   N   0.096777329591424   0.191644259590695   0.110363977642966   1.0000000
N2   N   0.096338148837297   0.333897436492236   0.111112079918991   1.0000000
N2   N   0.095211337953503   0.476401073523600   0.111360737111287   1.0000000
N2   N   0.094709282591189   0.619260469745647   0.110475827312112   1.0000000
N2   N   0.094768224398374   0.762151069329069   0.110036130658699   1.0000000
N2   N   0.237850332588922   0.905233177519597   0.110036130658692   1.0000000
N2   N   0.238242915714119   0.048180176858163   0.108546016065538   1.0000000
N2   N   0.239262757695643   0.191742296357517   0.108592330021787   1.0000000
N2   N   0.241504808840534   0.336332791640603   0.112322243608839   1.0000000
N2   N   0.238103553901006   0.477199840832948   0.111433140723659   1.0000000
N2   N   0.237210900966967   0.619697157855645   0.110057029425728   1.0000000
N2   N   0.237538749263431   0.762462652654578   0.110611130981970   1.0000000
N2   N   0.380740932172334   0.905292119326809   0.110475827312112   1.0000000
N2   N   0.381053172924549   0.047932756420382   0.108076136372989   1.0000000
N2   N   0.381478557872268   0.190870398604687   0.108900681686907   1.0000000
N2   N   0.383349739273105   0.334742226326384   0.120041254100844   1.0000000
N2   N   0.381040083702251   0.480393164249667   0.101524757317640   1.0000000
N2   N   0.379310067585834   0.620691334332150   0.100897983233491   1.0000000
N2   N   0.380304244062339   0.762790500951038   0.110057029425728   1.0000000
N2   N   0.523600328393361   0.904790063964515   0.111360737111287   1.0000000
N2   N   0.523979544313793   0.047483356404465   0.108710779725335   1.0000000
N2   N   0.524300461328979   0.190002847157946   0.105471530171536   1.0000000
N2   N   0.524813223520527   0.332003033272137   0.117760186079882   1.0000000
N2   N   0.519608237667341   0.618961318215723   0.101524757317640   1.0000000
N2   N   0.522801561084028   0.761897848017029   0.111433140723659   1.0000000
N2   N   0.666103965424774   0.903663253080722   0.111112079918991   1.0000000
N2   N   0.666807475231888   0.047047117973690   0.110150735774421   1.0000000
N2   N   0.667129522674801   0.189930342380793   0.107823153026595   1.0000000
N2   N   0.667338718862896   0.332662683054130   0.107657007121902   1.0000000
N2   N   0.667998368644875   0.475188178396478   0.117760186079882   1.0000000
N2   N   0.665259175590621   0.616651662644887   0.120041254100844   1.0000000
N2   N   0.663668610276404   0.758496593077451   0.112322243608839   1.0000000
N2   N   0.808357142327296   0.903224072326567   0.110363977642959   1.0000000
N2   N   0.809595852620055   0.046946983016207   0.110250539117123   1.0000000
N2   N   0.809987962171611   0.190013439746409   0.109855567434632   1.0000000
N2   N   0.810071059537204   0.332871879242215   0.107823153026595   1.0000000
N2   N   0.809998554760053   0.475700940588007   0.105471530171536   1.0000000
N2   N   0.809131003313326   0.618522844045738   0.108900681686907   1.0000000
N2   N   0.808259105560485   0.760738644222326   0.108592330021787   1.0000000
O2   O   0.469448535030400   0.530553486166593   0.067800625219993   1.0000000
S2   S   0.527492981747324   0.472508420169674   0.212411980508802   1.0000000


