data_1
_audit_creation_method   'vasp2cif'
_cell_length_a    17.52789999999977
_cell_length_b    17.52789999999977
_cell_length_c    15.0
_cell_angle_alpha    90.0
_cell_angle_beta    90.0
_cell_angle_gamma    119.99999999999916

_symmetry_space_group_name_H-M    'P 1'
loop_
_atom_site_label
_atom_site_type_symbol
_atom_site_fract_x
_atom_site_fract_y
_atom_site_fract_z
_atom_site_occupancy
B2   B   0.904882520370122   0.952552351435155   0.119822200436986   1.0000000
B2   B   0.905466297685495   0.095642079429300   0.122263890078913   1.0000000
B2   B   0.905474565073943   0.238380933672327   0.122339244868900   1.0000000
B2   B   0.904902888029295   0.380920234300345   0.120134782005223   1.0000000
B2   B   0.903426485062561   0.523250514711556   0.115597225128801   1.0000000
B2   B   0.902712377180396   0.665644470414119   0.112353192118478   1.0000000
B2   B   0.903437698320517   0.808767392522258   0.115072207003802   1.0000000
B2   B   0.047410600431428   0.952408515198385   0.121282522036052   1.0000000
B2   B   0.048482697319760   0.095916408704806   0.120346690967526   1.0000000
B2   B   0.048775435228304   0.238681161692097   0.119327669235441   1.0000000
B2   B   0.048504055175415   0.381171956262225   0.120514763848773   1.0000000
B2   B   0.047417385342692   0.523611813236868   0.121765947219082   1.0000000
B2   B   0.046534563869214   0.666141968219602   0.121269213697268   1.0000000
B2   B   0.046551384037124   0.808997220543642   0.120902706452450   1.0000000
B2   B   0.190232168802934   0.952415461437939   0.121996172363364   1.0000000
B2   B   0.191283210529244   0.096065804914293   0.116896292274737   1.0000000
B2   B   0.192132214274340   0.239257468857835   0.110902267399976   1.0000000
B2   B   0.192139797127210   0.381491117389362   0.110826074954093   1.0000000
B2   B   0.191287017266107   0.523803438716770   0.116996207754460   1.0000000
B2   B   0.190228627018887   0.666412325425342   0.122263035319745   1.0000000
B2   B   0.189910139534788   0.809267408491329   0.123954057860716   1.0000000
B2   B   0.333235361409817   0.952410512653804   0.122468105353129   1.0000000
B2   B   0.333618427030092   0.095564726753668   0.114616409782913   1.0000000
B2   B   0.334996289370583   0.239543710573114   0.101927258704875   1.0000000
B2   B   0.335880340785135   0.382250134738166   0.091566859244226   1.0000000
B2   B   0.334982640867840   0.524046046051586   0.101649936702680   1.0000000
B2   B   0.333593889188864   0.666609018929286   0.114579055647086   1.0000000
B2   B   0.333217046365338   0.809420162058681   0.122475142419600   1.0000000
B2   B   0.476288638597745   0.952425260777432   0.122427553876653   1.0000000
B2   B   0.476401680294720   0.095123506675741   0.117942659210759   1.0000000
B2   B   0.476670850192182   0.237473253989449   0.104011156859940   1.0000000
B2   B   0.477637934737515   0.375924760929660   0.063159983972357   1.0000000
B2   B   0.477545138620074   0.530265864860100   0.062708515122988   1.0000000
B2   B   0.476620810074599   0.667734177406476   0.103792008559821   1.0000000
B2   B   0.476349552294528   0.809807707072912   0.117913095367107   1.0000000
B2   B   0.619353657381032   0.952591049181493   0.120969849111531   1.0000000
B2   B   0.619360906278947   0.095286452682517   0.120904964228730   1.0000000
B2   B   0.619337975279698   0.237837973971391   0.112363526060919   1.0000000
B2   B   0.618747320453633   0.379640402695201   0.096265911894524   1.0000000
B2   B   0.612895190483837   0.520681765050926   0.081539288310905   1.0000000
B2   B   0.618697245693313   0.667649528271482   0.095967524495901   1.0000000
B2   B   0.619287370669936   0.810011939004819   0.112391783231819   1.0000000
B2   B   0.762259836238770   0.952658800777743   0.119291408551008   1.0000000
B2   B   0.762415652143938   0.095474471614869   0.122366030646485   1.0000000
B2   B   0.762281586895170   0.238132998087582   0.119326902653686   1.0000000
B2   B   0.761628473267667   0.380548797677960   0.111136019659897   1.0000000
B2   B   0.758930635732788   0.522399230420919   0.101767944386927   1.0000000
B2   B   0.758901305207083   0.665072653046976   0.101549051395217   1.0000000
B2   B   0.761607040653962   0.809624492579209   0.110911448993173   1.0000000
Sn2   Sn   0.518895592828767   0.473652882961070   0.942265082850472   1.0000000
N2   N   0.952017914335892   0.904492527414637   0.119649077812021   1.0000000
N2   N   0.953016598671991   0.048016729147393   0.121907030045135   1.0000000
N2   N   0.953275764833351   0.190917791009976   0.122356040497303   1.0000000
N2   N   0.953029895524222   0.333575078580526   0.122097658421107   1.0000000
N2   N   0.952021345248107   0.476119498273904   0.120200319063864   1.0000000
N2   N   0.951282697599541   0.618602634737678   0.116832545635321   1.0000000
N2   N   0.951299815698317   0.761281276910842   0.116376021140750   1.0000000
N2   N   0.094767799525825   0.904488849739850   0.122373618181109   1.0000000
N2   N   0.095671716980979   0.047917487274957   0.120682675261579   1.0000000
N2   N   0.096429026201247   0.191194093287595   0.117720769537582   1.0000000
N2   N   0.096432609043348   0.333832197584393   0.117699901900097   1.0000000
N2   N   0.095678959028588   0.476358957008819   0.120976441329910   1.0000000
N2   N   0.094763703279683   0.618886188026003   0.122859424840573   1.0000000
N2   N   0.094478342489841   0.761542928774601   0.122853069715866   1.0000000
N2   N   0.237756961355381   0.904588233396025   0.123638608401751   1.0000000
N2   N   0.238130269695712   0.047596658553276   0.118537739313628   1.0000000
N2   N   0.239179781815218   0.191151000737336   0.110567548567167   1.0000000
N2   N   0.239958739432911   0.334282423412621   0.104781028196713   1.0000000
N2   N   0.239181816630245   0.476630987844196   0.110451321748742   1.0000000
N2   N   0.238116490687544   0.619120591433848   0.118648676099834   1.0000000
N2   N   0.237743826883840   0.761774676760096   0.123760961514202   1.0000000
N2   N   0.380872926456351   0.904733366581028   0.123439328591032   1.0000000
N2   N   0.380962606921771   0.047438974029185   0.118976247061107   1.0000000
N2   N   0.381103370052212   0.189941967319336   0.105830357198686   1.0000000
N2   N   0.382659635783736   0.333634523178156   0.087741429523202   1.0000000
N2   N   0.382613172891049   0.477614939557592   0.087366337001597   1.0000000
N2   N   0.381073642089968   0.619728747540464   0.105649014404695   1.0000000
N2   N   0.380920952905763   0.762087531464450   0.118914822314894   1.0000000
N2   N   0.524029269822925   0.905086132305420   0.121421399181393   1.0000000
N2   N   0.524045421730600   0.047496143614997   0.121415810614456   1.0000000
N2   N   0.524127810250757   0.189696948706614   0.112614456161668   1.0000000
N2   N   0.524267979074066   0.330677814017937   0.091278355981295   1.0000000
N2   N   0.524225152514181   0.622166402382594   0.090793600458039   1.0000000
N2   N   0.524078751165304   0.762948449737542   0.112640134679325   1.0000000
N2   N   0.667097886900152   0.905346260769681   0.118269588151439   1.0000000
N2   N   0.667139753610033   0.047827613427476   0.122411751813682   1.0000000
N2   N   0.667124043704732   0.190277153625191   0.118176188285339   1.0000000
N2   N   0.666970689360766   0.332525704071397   0.106786225715285   1.0000000
N2   N   0.664130467147103   0.474469834802030   0.093126559859607   1.0000000
N2   N   0.664079615660598   0.618184482460678   0.092941276779426   1.0000000
N2   N   0.666932929161467   0.762967135946805   0.106671672236644   1.0000000
N2   N   0.809798142650338   0.905114835646733   0.117330587137052   1.0000000
N2   N   0.810150969791892   0.048007416774535   0.122166323366113   1.0000000
N2   N   0.810164276843678   0.190676995952807   0.122195796138191   1.0000000
N2   N   0.809820375077613   0.333234779331634   0.117496625351231   1.0000000
N2   N   0.808394757299410   0.475700845880794   0.109338528152099   1.0000000
N2   N   0.807849808890373   0.618211124801360   0.103975261602400   1.0000000
N2   N   0.808384866855839   0.761254605388526   0.108941004692568   1.0000000


