data_1
_audit_creation_method   'vasp2cif'
_cell_length_a    17.52789999999977
_cell_length_b    17.52789999999977
_cell_length_c    15.0
_cell_angle_alpha    90.0
_cell_angle_beta    90.0
_cell_angle_gamma    119.99999999999916

_symmetry_space_group_name_H-M    'P 1'
loop_
_atom_site_label
_atom_site_type_symbol
_atom_site_fract_x
_atom_site_fract_y
_atom_site_fract_z
_atom_site_occupancy
B2   B   0.904864757593039   0.952508387884342   0.111023687015755   1.0000000
B2   B   0.904752766492398   0.095249012442603   0.111044744432770   1.0000000
B2   B   0.904748005487264   0.238060990916993   0.111045464231649   1.0000000
B2   B   0.904856585410453   0.380928364902179   0.111016466563684   1.0000000
B2   B   0.905398189749246   0.523914995785340   0.111030807328906   1.0000000
B2   B   0.905451418803885   0.667002722767854   0.111073961604015   1.0000000
B2   B   0.905396317798440   0.810048974865919   0.111057771206816   1.0000000
B2   B   0.047643331685781   0.952358399936219   0.111025219951381   1.0000000
B2   B   0.047493333989657   0.095136935733962   0.111023685501751   1.0000000
B2   B   0.047496433066905   0.238022375823100   0.111012577720722   1.0000000
B2   B   0.047504455234362   0.380920303926097   0.111029330055117   1.0000000
B2   B   0.047644949878716   0.523857663389964   0.111025004527915   1.0000000
B2   B   0.047855966273374   0.666791526635522   0.111033153158115   1.0000000
B2   B   0.047863156255661   0.809640550612213   0.111009746916343   1.0000000
B2   B   0.190361181087783   0.952138542461339   0.111009744031341   1.0000000
B2   B   0.189952783780082   0.094605420580558   0.111057767602815   1.0000000
B2   B   0.190175065692195   0.237813434520551   0.111013571990754   1.0000000
B2   B   0.190179772223152   0.380932396386356   0.111011852363335   1.0000000
B2   B   0.189958285803788   0.523912554057091   0.111045890939658   1.0000000
B2   B   0.190357262655324   0.666790258731212   0.111054851690656   1.0000000
B2   B   0.190472515917576   0.809529084485420   0.111012061482648   1.0000000
B2   B   0.333210090863481   0.952145591467627   0.111033155279120   1.0000000
B2   B   0.332999070033147   0.094550261800116   0.111073960471012   1.0000000
B2   B   0.332061923912691   0.236476882913126   0.111048202049505   1.0000000
B2   B   0.333034871622769   0.380813695534586   0.111032036038912   1.0000000
B2   B   0.332060025280910   0.524161570723052   0.111013383340646   1.0000000
B2   B   0.332989897051248   0.667012031882749   0.111059828874874   1.0000000
B2   B   0.333211391709787   0.809644478600676   0.111054853219651   1.0000000
B2   B   0.476143951776035   0.952356715054286   0.111025011424912   1.0000000
B2   B   0.476086687114659   0.094603167186750   0.111030815616904   1.0000000
B2   B   0.475850570328019   0.236481411590430   0.111059765938489   1.0000000
B2   B   0.473930531217603   0.376462102221453   0.111048948171936   1.0000000
B2   B   0.473937395230130   0.526064147809870   0.111069023689858   1.0000000
B2   B   0.475840162363952   0.667941842769089   0.111013383767647   1.0000000
B2   B   0.476089213279906   0.810043809072208   0.111045898570660   1.0000000
B2   B   0.619081455423902   0.952497381570636   0.111029333803116   1.0000000
B2   B   0.619073339247822   0.095145015672546   0.111016469641685   1.0000000
B2   B   0.619061496830584   0.237821781018718   0.111030807768098   1.0000000
B2   B   0.619191056163952   0.380810696003049   0.111015150722372   1.0000000
B2   B   0.623539762464546   0.526071244644400   0.111048946539933   1.0000000
B2   B   0.619187934158417   0.666966700632232   0.111032033392915   1.0000000
B2   B   0.619069271438648   0.809822003324841   0.111011853537337   1.0000000
B2   B   0.761979349567895   0.952505351315096   0.111012585054724   1.0000000
B2   B   0.761940761444009   0.095253738551740   0.111045466574649   1.0000000
B2   B   0.761968506060143   0.238033125412862   0.111058423217395   1.0000000
B2   B   0.762179779836287   0.380940179219414   0.111030802649099   1.0000000
B2   B   0.763520243555570   0.524151265254980   0.111059762631495   1.0000000
B2   B   0.763524938841874   0.667939835069303   0.111048206175505   1.0000000
B2   B   0.762188222449449   0.809826590180804   0.111013580191753   1.0000000
C2   C   0.523794600405090   0.476207257283910   0.111118097227293   1.0000000
N2   N   0.952617913817358   0.905047316271423   0.111007350156550   1.0000000
N2   N   0.952345342429758   0.047656387409241   0.110999082344781   1.0000000
N2   N   0.952327383108120   0.190444517567845   0.111006821985502   1.0000000
N2   N   0.952344966708359   0.333256093739332   0.110999750788692   1.0000000
N2   N   0.952617401346239   0.476139194415020   0.110973100002967   1.0000000
N2   N   0.952789996176325   0.619165947453119   0.111016581852925   1.0000000
N2   N   0.952791531018349   0.762186975560476   0.111019626619001   1.0000000
N2   N   0.095256526381751   0.904745201092249   0.110969907110532   1.0000000
N2   N   0.094954424909571   0.047383806306639   0.111007362567550   1.0000000
N2   N   0.095051351568362   0.190369038489545   0.110978344261643   1.0000000
N2   N   0.095055119035234   0.333240844514173   0.110981911685636   1.0000000
N2   N   0.094958481446616   0.476138403298240   0.111005527901747   1.0000000
N2   N   0.095252961302738   0.619080555666674   0.111007724105154   1.0000000
N2   N   0.095359835597002   0.761966574355657   0.110981913667409   1.0000000
N2   N   0.238035047139345   0.904641753122995   0.110981911916411   1.0000000
N2   N   0.237814795799522   0.047210184541654   0.111019624161000   1.0000000
N2   N   0.237169036241179   0.189543081047381   0.111010731701737   1.0000000
N2   N   0.237876334512183   0.333224183618939   0.110990434996576   1.0000000
N2   N   0.237169773951974   0.476194699133856   0.110993957596638   1.0000000
N2   N   0.237809545587527   0.619169087856815   0.111028886906043   1.0000000
N2   N   0.238032870760562   0.761968795767438   0.111006856465924   1.0000000
N2   N   0.380921076660324   0.904748679328260   0.111007726895149   1.0000000
N2   N   0.380835724602882   0.047211483676680   0.111016591010926   1.0000000
N2   N   0.380492250937206   0.189548572690108   0.111042559930119   1.0000000
N2   N   0.379249855025984   0.331195577469129   0.111003572107360   1.0000000
N2   N   0.379253293920002   0.476640775996759   0.110998312203630   1.0000000
N2   N   0.380486212297203   0.619515581186793   0.110992914085465   1.0000000
N2   N   0.380832714544186   0.762192444494471   0.111028890434044   1.0000000
N2   N   0.523863389829760   0.905043581425383   0.111005535562741   1.0000000
N2   N   0.523862540272979   0.047384060241760   0.110973105458969   1.0000000
N2   N   0.523803359134349   0.189542232780569   0.111017698033137   1.0000000
N2   N   0.523359002680568   0.331198191336271   0.110995802881370   1.0000000
N2   N   0.523360709840238   0.620748221843001   0.110998310806632   1.0000000
N2   N   0.523806944615146   0.762832237510027   0.110993965360639   1.0000000
N2   N   0.666760873523827   0.904946693365761   0.110981912760637   1.0000000
N2   N   0.666745686030671   0.047656795063639   0.110999754153695   1.0000000
N2   N   0.666751847857727   0.190379112042924   0.111010614903719   1.0000000
N2   N   0.666770354413290   0.333231262016708   0.110993451188362   1.0000000
N2   N   0.668803601059735   0.476642749041427   0.110995802326365   1.0000000
N2   N   0.668806301706868   0.620751869703027   0.111003565655362   1.0000000
N2   N   0.666777426998066   0.762125275965811   0.110990434371575   1.0000000
N2   N   0.809632629622454   0.904950355681638   0.110978355462645   1.0000000
N2   N   0.809557250411156   0.047674408317881   0.111006828248503   1.0000000
N2   N   0.809553757345675   0.190447939798326   0.111018135387127   1.0000000
N2   N   0.809622437783071   0.333249808988276   0.111010609949723   1.0000000
N2   N   0.810459089352433   0.476198326994648   0.111017687151140   1.0000000
N2   N   0.810453185320888   0.619509526027794   0.111042559610119   1.0000000
N2   N   0.810458677112622   0.762832691454816   0.111010749370732   1.0000000


