data_1
_audit_creation_method   'vasp2cif'
_cell_length_a    17.52789999999977
_cell_length_b    17.52789999999977
_cell_length_c    15.0
_cell_angle_alpha    90.0
_cell_angle_beta    90.0
_cell_angle_gamma    119.99999999999916

_symmetry_space_group_name_H-M    'P 1'
loop_
_atom_site_label
_atom_site_type_symbol
_atom_site_fract_x
_atom_site_fract_y
_atom_site_fract_z
_atom_site_occupancy
B2   B   0.904873069638015   0.952351109233572   0.111015736931762   1.0000000
B2   B   0.904771842663931   0.095188185406078   0.111041233688174   1.0000000
B2   B   0.904727323338258   0.238089947834672   0.111042277490458   1.0000000
B2   B   0.904765713689795   0.381024374907407   0.111007676274139   1.0000000
B2   B   0.904868308275751   0.523949087905771   0.111010841968247   1.0000000
B2   B   0.903558335794470   0.666699709471462   0.111052051993581   1.0000000
B2   B   0.903554218048238   0.808294860164809   0.111014090178945   1.0000000
B2   B   0.047044589725084   0.951815525932061   0.111019168555070   1.0000000
B2   B   0.047698367453434   0.095284541329304   0.111018327606588   1.0000000
B2   B   0.047782314356294   0.238199095796379   0.111001669940983   1.0000000
B2   B   0.047770799478965   0.381010193130165   0.111018047496573   1.0000000
B2   B   0.047702488128646   0.523849361054211   0.111014458630691   1.0000000
B2   B   0.047058640685971   0.666672940284008   0.111034513159669   1.0000000
B2   B   0.047349723885264   0.809398020802904   0.111008210401187   1.0000000
B2   B   0.190363676596588   0.952282816316532   0.111008319845261   1.0000000
B2   B   0.190075264322545   0.094867611080357   0.111047124009042   1.0000000
B2   B   0.190886148023891   0.238442577957833   0.111004537073212   1.0000000
B2   B   0.191084717938467   0.381250030510671   0.111003928637227   1.0000000
B2   B   0.190885235542703   0.523873255853758   0.111048069105657   1.0000000
B2   B   0.190091901177659   0.666656577707700   0.111049534009889   1.0000000
B2   B   0.190377987836611   0.809518278780363   0.111004579512597   1.0000000
B2   B   0.333398100352634   0.952406232001807   0.111020266647457   1.0000000
B2   B   0.333343816436505   0.095144290405000   0.111052928048274   1.0000000
B2   B   0.332919623212084   0.237475304711855   0.111039450747818   1.0000000
B2   B   0.334652569160603   0.380924894830351   0.111026965232834   1.0000000
B2   B   0.334664208171359   0.525123118135917   0.111035198210160   1.0000000
B2   B   0.332922919436987   0.666869550884998   0.111063629822290   1.0000000
B2   B   0.333352782379176   0.809633244275847   0.111047437691640   1.0000000
B2   B   0.476277092691880   0.952496717937441   0.111008473491876   1.0000000
B2   B   0.476282984695397   0.095207022561382   0.111005843504891   1.0000000
B2   B   0.476351701508861   0.237889603182058   0.111043397713539   1.0000000
B2   B   0.476061528459015   0.380307830802728   0.111043989263999   1.0000000
B2   B   0.476070850326429   0.667159775079748   0.111013716538478   1.0000000
B2   B   0.476359890141274   0.809899739028323   0.111046481187811   1.0000000
B2   B   0.619067043685471   0.952171431439937   0.111025842907486   1.0000000
B2   B   0.619057882206458   0.095251380872647   0.111007309908890   1.0000000
B2   B   0.619074542816723   0.238334666736817   0.111012998640725   1.0000000
B2   B   0.618602282257553   0.381208810987375   0.111002803245711   1.0000000
B2   B   0.621077109878928   0.525134577973114   0.111071734761938   1.0000000
B2   B   0.621054972018237   0.667347314964221   0.111016953290174   1.0000000
B2   B   0.618607416101031   0.808817810213381   0.111006154094231   1.0000000
B2   B   0.761772044984309   0.952253364493409   0.111011634884519   1.0000000
B2   B   0.761807940029562   0.095163573234309   0.111050304128790   1.0000000
B2   B   0.761808942596852   0.238105159315135   0.111053822952492   1.0000000
B2   B   0.761771225582074   0.380952033053514   0.111015250702536   1.0000000
B2   B   0.762302339687722   0.523634601228159   0.111040293989777   1.0000000
B2   B   0.757715279494284   0.664582521392995   0.111072984443568   1.0000000
B2   B   0.762307178333296   0.810114660282400   0.111013742769325   1.0000000
C2   C   0.475899511868225   0.523622417453156   0.111073774927357   1.0000000
C2   C   0.523846311651408   0.479331519984331   0.111115290371011   1.0000000
C2   C   0.523804307277317   0.615862524508523   0.110977543592618   1.0000000
N2   N   0.951420333961545   0.903669641495222   0.111000276223873   1.0000000
N2   N   0.952386337608990   0.047461976395993   0.111010582212390   1.0000000
N2   N   0.952422146713976   0.190472715693750   0.111018052633987   1.0000000
N2   N   0.952415029306916   0.333392236127781   0.111006565307606   1.0000000
N2   N   0.952388362422701   0.476362563204763   0.110980183303642   1.0000000
N2   N   0.951422976877119   0.619185833283743   0.111014986575093   1.0000000
N2   N   0.951577379226088   0.761506340373455   0.111016644184217   1.0000000
N2   N   0.094834408355214   0.904441647135161   0.110991148249438   1.0000000
N2   N   0.094713052450298   0.047075759988335   0.111015185819715   1.0000000
N2   N   0.095421693877085   0.190613804754710   0.110983741988823   1.0000000
N2   N   0.095542293132843   0.333486784061936   0.110988038605651   1.0000000
N2   N   0.095419017188316   0.476239313143177   0.111011407684219   1.0000000
N2   N   0.094723626306726   0.619079039634625   0.111015889058683   1.0000000
N2   N   0.094842713277750   0.761839754746738   0.110996348589008   1.0000000
N2   N   0.237991605654375   0.904712331045771   0.110989160587723   1.0000000
N2   N   0.237874914533438   0.047406452324327   0.111027210811940   1.0000000
N2   N   0.237604876357236   0.189969623464689   0.111016996011993   1.0000000
N2   N   0.239001062141955   0.333962229898433   0.110990034333074   1.0000000
N2   N   0.239005308937710   0.476455794254337   0.111013067961014   1.0000000
N2   N   0.237608832795576   0.619066912476610   0.111040757224844   1.0000000
N2   N   0.237885789290875   0.761908776158044   0.111011356657410   1.0000000
N2   N   0.380960632224061   0.904866140528600   0.111008713372963   1.0000000
N2   N   0.380958171312521   0.047520944479384   0.111015784489707   1.0000000
N2   N   0.380891968853580   0.190152533840914   0.111037312299515   1.0000000
N2   N   0.380357419596834   0.332173715437375   0.111003915947849   1.0000000
N2   N   0.383738080187771   0.477554515055371   0.111040028110525   1.0000000
N2   N   0.380359548698462   0.619591304614114   0.111022301660574   1.0000000
N2   N   0.380898406006366   0.762172311521298   0.111035861174187   1.0000000
N2   N   0.523960083556817   0.905063603004470   0.111011951101378   1.0000000
N2   N   0.523903957063583   0.047667257507991   0.110975521916965   1.0000000
N2   N   0.523958084170302   0.190333180643843   0.111007291733107   1.0000000
N2   N   0.524031425756984   0.332759716497380   0.110997063975362   1.0000000
N2   N   0.524037779188505   0.762695053963381   0.111008270727969   1.0000000
N2   N   0.666789188038315   0.904326260934460   0.110996178869402   1.0000000
N2   N   0.666698430480684   0.047534372304583   0.111013516507424   1.0000000
N2   N   0.666699886285881   0.190610256062947   0.111015815152762   1.0000000
N2   N   0.666784914446267   0.333895192757018   0.110986433339146   1.0000000
N2   N   0.667909071093125   0.478054414201422   0.111003249240197   1.0000000
N2   N   0.667905947268972   0.761274384930959   0.110999524775170   1.0000000
N2   N   0.809707692856801   0.904682066828909   0.110995156761707   1.0000000
N2   N   0.809480570124272   0.047471438183249   0.111021212387184   1.0000000
N2   N   0.809465304212600   0.190461560576954   0.111035103767353   1.0000000
N2   N   0.809479644075778   0.333457104195594   0.111016818545920   1.0000000
N2   N   0.809701529280824   0.476463250125369   0.111010268334866   1.0000000
N2   N   0.807027671139015   0.619074463057769   0.111040889779812   1.0000000
N2   N   0.807034943139738   0.759408095535177   0.111018282080452   1.0000000


