data_1
_audit_creation_method   'vasp2cif'
_cell_length_a    14.93631414619966
_cell_length_b    14.936314146199727
_cell_length_c    13.341276283792837
_cell_angle_alpha    90.0
_cell_angle_beta    90.0
_cell_angle_gamma    119.99999999999984

_symmetry_space_group_name_H-M    'P 1'
loop_
_atom_site_label
_atom_site_type_symbol
_atom_site_fract_x
_atom_site_fract_y
_atom_site_fract_z
_atom_site_occupancy
As2   As   0.506150454197378   0.419741893765356   0.375000000000000   1.0000000
N2   N   0.111842090242901   0.055922731510144   0.124957554395373   1.0000000
N2   N   0.611909405533700   0.556015618862035   0.122875200366762   1.0000000
N2   N   0.445217040146223   0.055945399909057   0.124887719110257   1.0000000
N2   N   0.945172168621616   0.555916034256317   0.124858130527353   1.0000000
N2   N   0.778549778699808   0.055941556016586   0.124821818466115   1.0000000
N2   N   0.111860272539086   0.722596802936211   0.625095882192857   1.0000000
N2   N   0.445217040146223   0.722604973570490   0.625112280889779   1.0000000
N2   N   0.278453647698978   0.222556528352859   0.625652129516513   1.0000000
N2   N   0.778524492020207   0.722617168826663   0.625398187120776   1.0000000
N2   N   0.611871575925481   0.222578194815079   0.625537907992061   1.0000000
N2   N   0.945181255253150   0.222588924065854   0.625148985007898   1.0000000
N2   N   0.278535781432521   0.722601069841657   0.124883899950145   1.0000000
N2   N   0.111821623931183   0.222577478632254   0.124885769660234   1.0000000
N2   N   0.445210495844949   0.222608525735909   0.124151079460705   1.0000000
N2   N   0.611871575925487   0.722626714443742   0.124462092007942   1.0000000
N2   N   0.945172168621600   0.722589467698629   0.124858130527353   1.0000000
N2   N   0.778546010106737   0.222587938372145   0.124820360694905   1.0000000
N2   N   0.111861717180747   0.889270102453769   0.625069109289819   1.0000000
N2   N   0.445221351958867   0.889277342646055   0.625079188843031   1.0000000
N2   N   0.278453647698978   0.389230452679453   0.625652129516511   1.0000000
N2   N   0.611909405533714   0.389227120004953   0.627124799633228   1.0000000
N2   N   0.778546010106736   0.889291405067928   0.625179639305084   1.0000000
N2   N   0.945181991392881   0.389254276283834   0.625099158757341   1.0000000
N2   N   0.111842090242899   0.389252692066081   0.124957554395371   1.0000000
N2   N   0.278535781432521   0.889268044924186   0.124883899950145   1.0000000
N2   N   0.611875535926999   0.889280953501166   0.124801509597517   1.0000000
N2   N   0.444981880741321   0.389157607037309   0.121966248564224   1.0000000
N2   N   0.945181991392885   0.889261048442402   0.124900841242648   1.0000000
N2   N   0.778524492020207   0.389240656526868   0.124601812879248   1.0000000
N2   N   0.278528350710730   0.555928387538668   0.625161724856991   1.0000000
N2   N   0.111842090242899   0.055922731510142   0.625042445604617   1.0000000
N2   N   0.611909405533700   0.556015618862038   0.627124799633215   1.0000000
N2   N   0.445217040146223   0.055945399909056   0.625112280889779   1.0000000
N2   N   0.945172168621615   0.555916034256316   0.625141869472660   1.0000000
N2   N   0.111861717180747   0.555924948060359   0.124930890710164   1.0000000
N2   N   0.778549778699808   0.055941556016586   0.625178181533894   1.0000000
N2   N   0.278528350710730   0.055933296505420   0.124838275143042   1.0000000
N2   N   0.445210495844949   0.555935303442366   0.124151079460703   1.0000000
N2   N   0.778512421532447   0.555922877432909   0.124405984671149   1.0000000
N2   N   0.611875535926999   0.055927915759132   0.124801509597522   1.0000000
N2   N   0.445210495844950   0.555935303442385   0.625848920539292   1.0000000
N2   N   0.945181255253150   0.055925664520668   0.124851014992147   1.0000000
N2   N   0.278535781432521   0.722601069841657   0.625116100049862   1.0000000
N2   N   0.111821623931181   0.222577478632248   0.625114230339793   1.0000000
N2   N   0.445210495844949   0.222608525735905   0.625848920539292   1.0000000
N2   N   0.611871575925481   0.722626714443744   0.625537907992061   1.0000000
N2   N   0.945172168621601   0.722589467698632   0.625141869472660   1.0000000
N2   N   0.778546010106737   0.222587938372145   0.625179639305084   1.0000000
N2   N   0.111860272539084   0.722596802936211   0.124904117807154   1.0000000
N2   N   0.445217040146223   0.722604973570490   0.124887719110254   1.0000000
N2   N   0.278453647698967   0.222556528352858   0.124347870483509   1.0000000
N2   N   0.778524492020221   0.722617168826662   0.124601812879246   1.0000000
N2   N   0.611871575925487   0.222578194815079   0.124462092007942   1.0000000
N2   N   0.945181255253150   0.222588924065854   0.124851014992147   1.0000000
N2   N   0.111842090242901   0.389252692066081   0.625042445604616   1.0000000
N2   N   0.278535781432521   0.889268044924186   0.625116100049862   1.0000000
N2   N   0.611875535926999   0.889280953501176   0.625198490402480   1.0000000
N2   N   0.444981880741311   0.389157607037309   0.628033751435768   1.0000000
N2   N   0.945181991392882   0.889261048442402   0.625099158757341   1.0000000
N2   N   0.111861717180747   0.889270102453769   0.124930890710164   1.0000000
N2   N   0.778524492020209   0.389240656526868   0.625398187120778   1.0000000
N2   N   0.445221351958867   0.889277342646055   0.124920811156976   1.0000000
N2   N   0.278453647698967   0.389230452679453   0.124347870483508   1.0000000
N2   N   0.278528350710731   0.555928387538662   0.124838275143042   1.0000000
N2   N   0.611909405533714   0.389227120004966   0.122875200366762   1.0000000
N2   N   0.778546010106736   0.889291405067928   0.124820360694905   1.0000000
N2   N   0.945181991392882   0.389254276283834   0.124900841242648   1.0000000
N2   N   0.111861717180747   0.555924948060359   0.625069109289819   1.0000000
N2   N   0.278528350710731   0.055933296505421   0.625161724856992   1.0000000
N2   N   0.778512421532447   0.555922877432909   0.625594015328886   1.0000000
N2   N   0.611875535926999   0.055927915759132   0.625198490402480   1.0000000
N2   N   0.945181255253150   0.055925664520668   0.625148985007898   1.0000000
N2   N   0.057330980078058   0.112276162226601   0.375000000000000   1.0000000
N2   N   0.553535628773346   0.621108063880331   0.375000000000000   1.0000000
N2   N   0.385860603904844   0.104452840209221   0.375000000000000   1.0000000
N2   N   0.882716706660401   0.608025019996874   0.375000000000000   1.0000000
N2   N   0.722377059877960   0.110154725158375   0.375000000000000   1.0000000
N2   N   0.054671792378434   0.777336496229831   0.875000000000000   1.0000000
N2   N   0.387990773600893   0.777331905177363   0.875000000000000   1.0000000
N2   N   0.221306341261462   0.277319837297410   0.875000000000000   1.0000000
N2   N   0.721328409866590   0.777332592377489   0.875000000000000   1.0000000
N2   N   0.554638288457271   0.277321746431374   0.875000000000000   1.0000000
N2   N   0.887966992960668   0.277320488157024   0.875000000000000   1.0000000
N2   N   0.218077215683792   0.775705274508525   0.375000000000000   1.0000000
N2   N   0.057330980078057   0.278388151184772   0.375000000000000   1.0000000
N2   N   0.392490221119998   0.273432631722748   0.375000000000000   1.0000000
N2   N   0.553890631163256   0.781708477418430   0.375000000000000   1.0000000
N2   N   0.885944129459761   0.776823798592370   0.375000000000000   1.0000000
N2   N   0.721696392988844   0.274847912032245   0.375000000000000   1.0000000
N2   N   0.054663414319823   0.943998771807144   0.875000000000000   1.0000000
N2   N   0.387990773600891   0.943992201756816   0.875000000000000   1.0000000
N2   N   0.221302433183318   0.443979976490925   0.875000000000000   1.0000000
N2   N   0.554652088795303   0.443992711064316   0.875000000000000   1.0000000
N2   N   0.721318601548322   0.943993500896461   0.875000000000000   1.0000000
N2   N   0.887978656085035   0.443991535907282   0.875000000000000   1.0000000
N2   N   0.054282734889923   0.443781311273507   0.375000000000000   1.0000000
N2   N   0.218697160207101   0.941388986934943   0.375000000000000   1.0000000
N2   N   0.553962794714223   0.943648064023776   0.375000000000000   1.0000000
N2   N   0.392490221119989   0.452390922730588   0.375000000000000   1.0000000
N2   N   0.889341940067240   0.945518682212314   0.375000000000000   1.0000000
N2   N   0.716459003073187   0.439768411606715   0.375000000000000   1.0000000
N2   N   0.221300655494567   0.610645191499716   0.875000000000000   1.0000000
N2   N   0.054656457939173   0.110661617161648   0.875000000000000   1.0000000
N2   N   0.554638288457276   0.610649875359235   0.875000000000000   1.0000000
N2   N   0.387992574816643   0.110655777394771   0.875000000000000   1.0000000
N2   N   0.887987187848562   0.610660260590988   0.875000000000000   1.0000000
N2   N   0.051122495702056   0.609189570333067   0.375000000000000   1.0000000
N2   N   0.721318601548322   0.110658433985211   0.875000000000000   1.0000000
N2   N   0.222867480050965   0.110741438620390   0.375000000000000   1.0000000
N2   N   0.385860603904842   0.614741097028956   0.375000000000000   1.0000000
N2   N   0.716459003073187   0.610023924799808   0.375000000000000   1.0000000
N2   N   0.553890631163249   0.105515487078154   0.375000000000000   1.0000000
N2   N   0.387992574816643   0.610670130755210   0.875000000000000   1.0000000
N2   N   0.890140142929442   0.111736738131387   0.375000000000000   1.0000000
N2   N   0.221302694804755   0.777318014069040   0.875000000000000   1.0000000
N2   N   0.054656457939174   0.277328174110878   0.875000000000000   1.0000000
N2   N   0.387998570707211   0.277322844401419   0.875000000000000   1.0000000
N2   N   0.554628538597488   0.777313672928382   0.875000000000000   1.0000000
N2   N   0.887978656085035   0.777320453511043   0.875000000000000   1.0000000
N2   N   0.721328409866590   0.277329150822417   0.875000000000000   1.0000000
N2   N   0.051122495702057   0.775266258702316   0.375000000000000   1.0000000
N2   N   0.385657271244795   0.777851376929637   0.375000000000000   1.0000000
N2   N   0.226163819316038   0.279748576324679   0.375000000000000   1.0000000
N2   N   0.721696392988844   0.780181814289909   0.375000000000000   1.0000000
N2   N   0.553535628773344   0.265760898226356   0.375000000000000   1.0000000
N2   N   0.889341940067240   0.277156591188272   0.375000000000000   1.0000000
N2   N   0.054663414319823   0.443997975846006   0.875000000000000   1.0000000
N2   N   0.221300655494567   0.943988797328216   0.875000000000000   1.0000000
N2   N   0.554626239673216   0.943979786503275   0.875000000000000   1.0000000
N2   N   0.387998570707207   0.444009059639112   0.875000000000000   1.0000000
N2   N   0.887966992960668   0.943979838136960   0.875000000000000   1.0000000
N2   N   0.054282734889924   0.943834756949788   0.375000000000000   1.0000000
N2   N   0.721346672108559   0.444006904817883   0.875000000000000   1.0000000
N2   N   0.385657271244786   0.941139227648497   0.375000000000000   1.0000000
N2   N   0.222867480050966   0.445459374763925   0.375000000000000   1.0000000
N2   N   0.218697160207098   0.610641506605466   0.375000000000000   1.0000000
N2   N   0.722377059877965   0.945555668052949   0.375000000000000   1.0000000
N2   N   0.885944129459777   0.442453664200725   0.375000000000000   1.0000000
N2   N   0.054671792378433   0.610668629481930   0.875000000000000   1.0000000
N2   N   0.221302433183325   0.110655790025719   0.875000000000000   1.0000000
N2   N   0.721346672108559   0.610673100624007   0.875000000000000   1.0000000
N2   N   0.554628538597488   0.110648199002455   0.875000000000000   1.0000000
N2   N   0.887961611091612   0.110647472212459   0.875000000000000   1.0000000
B2   B   0.112023873455989   0.055820449366786   0.375000000000000   1.0000000
B2   B   0.604290845005325   0.563430703060550   0.375000000000000   1.0000000
B2   B   0.442418421389368   0.051279897968068   0.375000000000000   1.0000000
B2   B   0.939577870540117   0.553441597536853   0.375000000000000   1.0000000
B2   B   0.778869306580026   0.056101319956669   0.375000000000000   1.0000000
B2   B   0.110220647027514   0.721776990180432   0.875000000000000   1.0000000
B2   B   0.443551030691696   0.721746627605465   0.875000000000000   1.0000000
B2   B   0.276814793905399   0.221755671368584   0.875000000000000   1.0000000
B2   B   0.776867789596873   0.721740382158643   0.875000000000000   1.0000000
B2   B   0.610052881340330   0.221739093062734   0.875000000000000   1.0000000
B2   B   0.943415277652975   0.221711543127510   0.875000000000000   1.0000000
B2   B   0.274398785812479   0.721310309385861   0.375000000000000   1.0000000
B2   B   0.115015320666874   0.224174327000109   0.375000000000000   1.0000000
B2   B   0.442197987459606   0.214786671694054   0.375000000000000   1.0000000
B2   B   0.610511367032319   0.728646140900694   0.375000000000000   1.0000000
B2   B   0.939577870540120   0.719469606336616   0.375000000000000   1.0000000
B2   B   0.778258088153514   0.221106909269084   0.375000000000000   1.0000000
B2   B   0.110228859202821   0.888455175229731   0.875000000000000   1.0000000
B2   B   0.443547624615608   0.888440478974468   0.875000000000000   1.0000000
B2   B   0.276814793905388   0.388392455870163   0.875000000000000   1.0000000
B2   B   0.610058493721865   0.388407131693395   0.875000000000000   1.0000000
B2   B   0.776877740871160   0.888420386814758   0.875000000000000   1.0000000
B2   B   0.943401461028574   0.388378287855547   0.875000000000000   1.0000000
B2   B   0.112023873455993   0.389536757422534   0.375000000000000   1.0000000
B2   B   0.274398785812479   0.886421809759960   0.375000000000000   1.0000000
B2   B   0.610835320291556   0.890841422700179   0.375000000000000   1.0000000
B2   B   0.943088595353908   0.888348019421033   0.375000000000000   1.0000000
B2   B   0.774398878248194   0.386246201011223   0.375000000000000   1.0000000
B2   B   0.276766280021182   0.555025130574663   0.875000000000000   1.0000000
B2   B   0.110253792202851   0.055138018479721   0.875000000000000   1.0000000
B2   B   0.610058493721865   0.554984695361810   0.875000000000000   1.0000000
B2   B   0.443551030691703   0.055137736419585   0.875000000000000   1.0000000
B2   B   0.943388935193437   0.555035494639034   0.875000000000000   1.0000000
B2   B   0.107864503269389   0.554623758427009   0.375000000000000   1.0000000
B2   B   0.776883359140983   0.055108346237150   0.875000000000000   1.0000000
B2   B   0.275503342886311   0.052533937319374   0.375000000000000   1.0000000
B2   B   0.442197987459608   0.560744649098895   0.375000000000000   1.0000000
B2   B   0.769892563387777   0.551612948360565   0.375000000000000   1.0000000
B2   B   0.610835320291556   0.053327230924727   0.375000000000000   1.0000000
B2   B   0.443569172625338   0.555074980891535   0.875000000000000   1.0000000
B2   B   0.946161801037311   0.056733408808165   0.375000000000000   1.0000000
B2   B   0.276738660587457   0.721692274995588   0.875000000000000   1.0000000
B2   B   0.110271298994562   0.221802316163947   0.875000000000000   1.0000000
B2   B   0.443569172625338   0.221827525067162   0.875000000000000   1.0000000
B2   B   0.610052881340333   0.721647121610912   0.875000000000000   1.0000000
B2   B   0.943388935193437   0.721686773887756   0.875000000000000   1.0000000
B2   B   0.776877740871160   0.221790687389731   0.875000000000000   1.0000000
B2   B   0.106875908508380   0.720104620920862   0.375000000000000   1.0000000
B2   B   0.442418421389384   0.724471856754666   0.375000000000000   1.0000000
B2   B   0.283037227238234   0.224190384048066   0.375000000000000   1.0000000
B2   B   0.774398878248196   0.721486010570337   0.375000000000000   1.0000000
B2   B   0.610511367032319   0.215198559464982   0.375000000000000   1.0000000
B2   B   0.946161801037303   0.222761725562469   0.375000000000000   1.0000000
B2   B   0.110253792202851   0.388449107056466   0.875000000000000   1.0000000
B2   B   0.276738660587466   0.888379718925253   0.875000000000000   1.0000000
B2   B   0.610050161478506   0.888341997446701   0.875000000000000   1.0000000
B2   B   0.443604124550763   0.388468728942051   0.875000000000000   1.0000000
B2   B   0.943401461028574   0.888356506506345   0.875000000000000   1.0000000
B2   B   0.107864503269391   0.886574078175676   0.375000000000000   1.0000000
B2   B   0.776867789596873   0.388460740771567   0.875000000000000   1.0000000
B2   B   0.442393151629042   0.887863242481204   0.375000000000000   1.0000000
B2   B   0.283037227238235   0.392180176523493   0.375000000000000   1.0000000
B2   B   0.275503342886311   0.556302738900268   0.375000000000000   1.0000000
B2   B   0.604290845005319   0.374193475278082   0.375000000000000   1.0000000
B2   B   0.778258088153519   0.890484512217787   0.375000000000000   1.0000000
B2   B   0.943088595353914   0.388073909266202   0.375000000000000   1.0000000
B2   B   0.110228859202822   0.555107017306447   0.875000000000000   1.0000000
B2   B   0.276766280021182   0.055074482779831   0.875000000000000   1.0000000
B2   B   0.776864917115488   0.555099125224420   0.875000000000000   1.0000000
B2   B   0.610050161478488   0.055041497365125   0.875000000000000   1.0000000
B2   B   0.943415277652974   0.055037067858802   0.875000000000000   1.0000000
B2   B   0.056438102486606   0.111572099052328   0.125023513238741   1.0000000
B2   B   0.556287205774879   0.611290348589758   0.124247017393508   1.0000000
B2   B   0.389795324768823   0.111732547658444   0.124937979094988   1.0000000
B2   B   0.889445183177932   0.611389258255653   0.124879965145595   1.0000000
B2   B   0.723053740704836   0.111543762258354   0.124876441560352   1.0000000
B2   B   0.056343621759521   0.778188542501523   0.625030464549868   1.0000000
B2   B   0.389765223778821   0.778163095281241   0.625010055518387   1.0000000
B2   B   0.223058819151656   0.278196076242478   0.625130219933960   1.0000000
B2   B   0.722983108656404   0.778109602485814   0.625236004041201   1.0000000
B2   B   0.556287205774879   0.278330190518440   0.625752982606486   1.0000000
B2   B   0.889616984559013   0.278142884241154   0.625078414325505   1.0000000
B2   B   0.222971763409654   0.778152548371473   0.124930821521002   1.0000000
B2   B   0.056438102486606   0.278199336767625   0.125023513238741   1.0000000
B2   B   0.389774079476792   0.278377339219919   0.124256668726025   1.0000000
B2   B   0.556310293467855   0.778064848611048   0.124861976848418   1.0000000
B2   B   0.889522005693492   0.778086676701959   0.124902850474514   1.0000000
B2   B   0.722983108656404   0.278206839503964   0.124763995958796   1.0000000
B2   B   0.056396871185130   0.944899103608620   0.624966032866695   1.0000000
B2   B   0.389765223778829   0.944935461830904   0.625010055518387   1.0000000
B2   B   0.223041521462156   0.444754352840597   0.624991345221792   1.0000000
B2   B   0.556102235263782   0.444717784298555   0.625056873662024   1.0000000
B2   B   0.723053740704836   0.944843311779861   0.625123558439621   1.0000000
B2   B   0.889522005693492   0.444768662324859   0.625097149525487   1.0000000
B2   B   0.056396871185131   0.444831100909818   0.125033967133324   1.0000000
B2   B   0.223002462226545   0.944910819198517   0.124989043535400   1.0000000
B2   B   0.556319005173180   0.944826169253284   0.124905196856059   1.0000000
B2   B   0.389774079476794   0.444730073590199   0.124256668726020   1.0000000
B2   B   0.889616984559013   0.944807433651186   0.124921585674493   1.0000000
B2   B   0.722781141224984   0.444758054747984   0.124248983471210   1.0000000
B2   B   0.223002462226545   0.611424976361362   0.625010956464600   1.0000000
B2   B   0.056438102486606   0.111572099052328   0.624976486761233   1.0000000
B2   B   0.556287205774879   0.611290348589759   0.625752982606486   1.0000000
B2   B   0.389795324768823   0.111732547658447   0.625062020905029   1.0000000
B2   B   0.889445183177930   0.611389258255654   0.625120034854378   1.0000000
B2   B   0.056343621759521   0.611488412591346   0.124969535450142   1.0000000
B2   B   0.723053740704837   0.111543762258354   0.625123558439621   1.0000000
B2   B   0.223041521462160   0.111620501954897   0.125008654778209   1.0000000
B2   B   0.389795324768821   0.611396110443731   0.124937979094987   1.0000000
B2   B   0.722781141224986   0.611356419810325   0.124248983471210   1.0000000
B2   B   0.556310293467855   0.111578778190118   0.124861976848418   1.0000000
B2   B   0.389795324768821   0.611396110443745   0.625062020905033   1.0000000
B2   B   0.889649834560157   0.111491583946745   0.124895650616932   1.0000000
B2   B   0.222971763409654   0.778152548371473   0.625069178478990   1.0000000
B2   B   0.056438102486606   0.278199336767625   0.624976486761233   1.0000000
B2   B   0.389774079476792   0.278377339219927   0.625743331273985   1.0000000
B2   B   0.556310293467855   0.778064848611043   0.625138023151565   1.0000000
B2   B   0.889522005693492   0.778086676701959   0.625097149525487   1.0000000
B2   B   0.722983108656404   0.278206839503964   0.625236004041200   1.0000000
B2   B   0.056343621759521   0.778188542501523   0.124969535450142   1.0000000
B2   B   0.389765223778821   0.778163095281241   0.124989944481612   1.0000000
B2   B   0.223058819151651   0.278196076242478   0.124869780066046   1.0000000
B2   B   0.722983108656404   0.778109602485814   0.124763995958796   1.0000000
B2   B   0.556287205774879   0.278330190518449   0.124247017393508   1.0000000
B2   B   0.889616984559013   0.278142884241154   0.124921585674493   1.0000000
B2   B   0.056396871185129   0.444831100909819   0.624966032866695   1.0000000
B2   B   0.223002462226545   0.944910819198517   0.625010956464600   1.0000000
B2   B   0.556319005173180   0.944826169253284   0.625094803143955   1.0000000
B2   B   0.389774079476794   0.444730073590199   0.625743331273985   1.0000000
B2   B   0.889616984559013   0.944807433651186   0.625078414325505   1.0000000
B2   B   0.056396871185130   0.944899103608620   0.125033967133319   1.0000000
B2   B   0.722781141224988   0.444758054747985   0.625751016528781   1.0000000
B2   B   0.389765223778829   0.944935461830904   0.124989944481613   1.0000000
B2   B   0.223041521462155   0.444754352840597   0.125008654778208   1.0000000
B2   B   0.223002462226545   0.611424976361362   0.124989043535401   1.0000000
B2   B   0.556102235263778   0.444717784298553   0.124943126337985   1.0000000
B2   B   0.723053740704836   0.944843311779861   0.124876441560353   1.0000000
B2   B   0.889522005693492   0.444768662324859   0.124902850474514   1.0000000
B2   B   0.056343621759521   0.611488412591346   0.625030464549868   1.0000000
B2   B   0.223041521462160   0.111620501954897   0.624991345221792   1.0000000
B2   B   0.722781141224986   0.611356419810325   0.625751016528781   1.0000000
B2   B   0.556310293467855   0.111578778190119   0.625138023151572   1.0000000
B2   B   0.889649834560157   0.111491583946745   0.625104349383082   1.0000000


