data_1
_audit_creation_method   'vasp2cif'
_cell_length_a    17.52789999999977
_cell_length_b    17.52789999999977
_cell_length_c    15.0
_cell_angle_alpha    90.0
_cell_angle_beta    90.0
_cell_angle_gamma    119.99999999999916

_symmetry_space_group_name_H-M    'P 1'
loop_
_atom_site_label
_atom_site_type_symbol
_atom_site_fract_x
_atom_site_fract_y
_atom_site_fract_z
_atom_site_occupancy
B2   B   0.905175434452629   0.954364620123569   0.119367945576113   1.0000000
B2   B   0.904134609890838   0.096681677845600   0.117835822287849   1.0000000
B2   B   0.903529306738362   0.239063284758162   0.113121653124712   1.0000000
B2   B   0.902934712926624   0.381340606109906   0.110548520585547   1.0000000
B2   B   0.901766993494926   0.523442734291557   0.112050061359197   1.0000000
B2   B   0.901277418758170   0.665822636223175   0.115180798054949   1.0000000
B2   B   0.904295320170599   0.810532670050371   0.114379903343873   1.0000000
B2   B   0.046217353356030   0.951602106141754   0.117144865720208   1.0000000
B2   B   0.046337882640661   0.095069259510148   0.116446285400505   1.0000000
B2   B   0.046341246931235   0.238363386390701   0.114539747947410   1.0000000
B2   B   0.046423549964918   0.381117948163679   0.113986394336992   1.0000000
B2   B   0.046108298514397   0.523306827173980   0.114737682047416   1.0000000
B2   B   0.045361673124073   0.665411893621153   0.116971752373557   1.0000000
B2   B   0.045546346446085   0.808065939211356   0.116608683084695   1.0000000
B2   B   0.188240977399111   0.950047961911169   0.114417539591145   1.0000000
B2   B   0.187722219877247   0.092604584752187   0.112570208007460   1.0000000
B2   B   0.187687569792710   0.235989216907168   0.111151821850977   1.0000000
B2   B   0.189268722087827   0.380240333626134   0.114470082516486   1.0000000
B2   B   0.190427433556075   0.522918327732768   0.116962633267361   1.0000000
B2   B   0.189641918139548   0.665228596327914   0.118314948781825   1.0000000
B2   B   0.188707739830121   0.807588536074331   0.117182980680320   1.0000000
B2   B   0.331354038587776   0.950101681520258   0.114365486626515   1.0000000
B2   B   0.330339849200711   0.091789960560532   0.107624275991874   1.0000000
B2   B   0.328370253828295   0.232468679022165   0.101551206756594   1.0000000
B2   B   0.329201647316575   0.377579014478611   0.105941181068400   1.0000000
B2   B   0.335264664346929   0.521387177307488   0.115246786657429   1.0000000
B2   B   0.334152967212059   0.665055908306026   0.117683843735800   1.0000000
B2   B   0.332263666170377   0.807817379672022   0.118736728925671   1.0000000
B2   B   0.474752858235052   0.951705931138321   0.117382293726211   1.0000000
B2   B   0.473882928820761   0.093307351949988   0.108919117743839   1.0000000
B2   B   0.472352867275465   0.233806102296708   0.096746311150472   1.0000000
B2   B   0.465832968585254   0.367558510896659   0.073845754749539   1.0000000
B2   B   0.478484541898377   0.668289828464127   0.103617209997726   1.0000000
B2   B   0.475904777725370   0.809816496842097   0.118472609309206   1.0000000
B2   B   0.618321408135617   0.954266992872672   0.120137354838075   1.0000000
B2   B   0.617435283096015   0.095673552985299   0.112789158770797   1.0000000
B2   B   0.616607061265892   0.237287236940123   0.101710613536814   1.0000000
B2   B   0.614619082777985   0.378505254554893   0.097708113382641   1.0000000
B2   B   0.627102677462855   0.681212946587773   0.079162860604580   1.0000000
B2   B   0.619989586291081   0.813979948868774   0.112932742381255   1.0000000
B2   B   0.762027343119488   0.955172186572164   0.120291207135273   1.0000000
B2   B   0.760950950899955   0.096821277860929   0.116507588745524   1.0000000
B2   B   0.760194334607897   0.238784170344826   0.108957391651594   1.0000000
B2   B   0.759259940305039   0.381001474962446   0.105471491076896   1.0000000
B2   B   0.757336694197503   0.523364684495878   0.114286922869452   1.0000000
B2   B   0.761729203533271   0.669843353928162   0.094107324767489   1.0000000
B2   B   0.764570836312265   0.814902199252742   0.109612563442764   1.0000000
Sn2   Sn   0.511108442618062   0.508765629361352   0.080312613846589   1.0000000
N2   N   0.951671960624690   0.905477201039190   0.118355364252227   1.0000000
N2   N   0.951814180249112   0.048973608931845   0.118918204150189   1.0000000
N2   N   0.951271367523531   0.191531388164899   0.115064388287008   1.0000000
N2   N   0.950963419306816   0.334060145482606   0.112036547125749   1.0000000
N2   N   0.950285358730528   0.476331944070939   0.111816779569210   1.0000000
N2   N   0.949491017924040   0.618385606299738   0.116014349432098   1.0000000
N2   N   0.950253957201305   0.761189592564115   0.115486636969880   1.0000000
N2   N   0.093241973942061   0.903244840464750   0.116232683226344   1.0000000
N2   N   0.093242007093262   0.046494710930801   0.116032455890185   1.0000000
N2   N   0.093214142273974   0.189794348834081   0.114225261827202   1.0000000
N2   N   0.093909550549417   0.333351166208005   0.114573134424736   1.0000000
N2   N   0.094468672340910   0.476116636501479   0.115200157677482   1.0000000
N2   N   0.093820247392801   0.618280417501324   0.116921255751825   1.0000000
N2   N   0.093290964641324   0.760492700397476   0.117319358092358   1.0000000
N2   N   0.236150649672552   0.902719039133869   0.115191091531205   1.0000000
N2   N   0.235510865341088   0.045061642776202   0.111569575700155   1.0000000
N2   N   0.234561451250150   0.187248083674774   0.109688944147114   1.0000000
N2   N   0.234759109744333   0.330479653402451   0.110546919455210   1.0000000
N2   N   0.238415470668840   0.475376508418615   0.116495764335904   1.0000000
N2   N   0.238211277142715   0.618109774001560   0.118651227069288   1.0000000
N2   N   0.236867568095181   0.760397477372495   0.118536266359295   1.0000000
N2   N   0.379486129271407   0.903207989520850   0.117301082130846   1.0000000
N2   N   0.378688471426631   0.045229129326135   0.110162845836735   1.0000000
N2   N   0.377448457052974   0.186576913351596   0.100787972955179   1.0000000
N2   N   0.374941715663610   0.326871375370667   0.092077435490404   1.0000000
N2   N   0.378844012678197   0.470181752813891   0.114286252012635   1.0000000
N2   N   0.383011598596260   0.617898919257470   0.113544470754493   1.0000000
N2   N   0.380585399570340   0.760759730734906   0.119070258537486   1.0000000
N2   N   0.523037628568184   0.905205961002949   0.120256749701377   1.0000000
N2   N   0.522157011641023   0.046941164027402   0.113374017495111   1.0000000
N2   N   0.521252048219671   0.188382054139884   0.102776701205107   1.0000000
N2   N   0.519328462581315   0.328801640589825   0.086171670943508   1.0000000
N2   N   0.613378086165640   0.503055008296672   0.166357604125913   1.0000000
N2   N   0.533693604607333   0.631910363567709   0.079630781660747   1.0000000
N2   N   0.524669741911809   0.763781086742317   0.113217839511939   1.0000000
N2   N   0.666932953527600   0.908280973753560   0.120771353661926   1.0000000
N2   N   0.665701174585717   0.049227088840801   0.117491202896874   1.0000000
N2   N   0.664814692314224   0.190796788584380   0.107356708597015   1.0000000
N2   N   0.663772229660031   0.332819324144109   0.098112474613453   1.0000000
N2   N   0.660276083559470   0.471947622619268   0.120318214903753   1.0000000
N2   N   0.675594188174691   0.637026465729684   0.054820063582978   1.0000000
N2   N   0.671033226892872   0.771378541522365   0.102905109912344   1.0000000
N2   N   0.810775182565873   0.908570096492415   0.119440652038926   1.0000000
N2   N   0.809129258360131   0.049905947567579   0.119373592920135   1.0000000
N2   N   0.808240003998884   0.191762591760458   0.112547921492357   1.0000000
N2   N   0.807413772777117   0.333931200157813   0.107885065572939   1.0000000
N2   N   0.805742186929371   0.476072363147861   0.109172324688409   1.0000000
N2   N   0.805021846686405   0.618601528523218   0.111655589871408   1.0000000
N2   N   0.810093284933743   0.764964870732484   0.107082440505893   1.0000000


