data_1
_audit_creation_method   'vasp2cif'
_cell_length_a    14.93631414619966
_cell_length_b    14.936314146199727
_cell_length_c    13.341276283792837
_cell_angle_alpha    90.0
_cell_angle_beta    90.0
_cell_angle_gamma    119.99999999999984

_symmetry_space_group_name_H-M    'P 1'
loop_
_atom_site_label
_atom_site_type_symbol
_atom_site_fract_x
_atom_site_fract_y
_atom_site_fract_z
_atom_site_occupancy
Pb2   Pb   0.498419107676846   0.415876220505089   0.375000000000000   1.0000000
N2   N   0.111154735489851   0.055564325144096   0.125052251455018   1.0000000
N2   N   0.611212552392944   0.555677567610955   0.121847783068409   1.0000000
N2   N   0.444520569547929   0.055574034256344   0.124917536255427   1.0000000
N2   N   0.944488567477066   0.555578204006961   0.125027431813609   1.0000000
N2   N   0.777857043478721   0.055595188406029   0.125014201690860   1.0000000
N2   N   0.111164520635957   0.722248926984645   0.624946383087569   1.0000000
N2   N   0.444520569547929   0.722279868624926   0.625082463744575   1.0000000
N2   N   0.277781070048895   0.222206561878169   0.625901409313185   1.0000000
N2   N   0.777835265429914   0.722262089431514   0.625581829950180   1.0000000
N2   N   0.611172968945957   0.222222165410199   0.625754029420454   1.0000000
N2   N   0.944507042661098   0.222255706136156   0.624979938711438   1.0000000
N2   N   0.277844589998611   0.722261851284430   0.125036033339958   1.0000000
N2   N   0.111152942227035   0.222243137780182   0.124923973079660   1.0000000
N2   N   0.444515504011292   0.222237870278124   0.123697057835352   1.0000000
N2   N   0.611172968945957   0.722284136869086   0.124245970579541   1.0000000
N2   N   0.944488567477066   0.722243696803443   0.125027431813609   1.0000000
N2   N   0.777845374580558   0.222249321525749   0.124914801867243   1.0000000
N2   N   0.111167535983367   0.888909861149263   0.624917507349986   1.0000000
N2   N   0.444521414751049   0.888927374042187   0.624944423020550   1.0000000
N2   N   0.277781070048895   0.388907841504053   0.625901409313185   1.0000000
N2   N   0.611212552392944   0.388868318115319   0.628152216931590   1.0000000
N2   N   0.777845374580558   0.888929386388139   0.625085198132757   1.0000000
N2   N   0.944501446759675   0.388919878506788   0.624914282689980   1.0000000
N2   N   0.111154735489851   0.388923743679085   0.125052251455018   1.0000000
N2   N   0.277844589998611   0.888916072047509   0.125036033339958   1.0000000
N2   N   0.611191195193766   0.888944785359490   0.125003974430324   1.0000000
N2   N   0.444366282470053   0.388849807901691   0.122047305897014   1.0000000
N2   N   0.944501446759675   0.888914901586221   0.125085717310022   1.0000000
N2   N   0.777835265429914   0.388906509331728   0.124418170049824   1.0000000
N2   N   0.277845125275488   0.555602052290958   0.625051212605003   1.0000000
N2   N   0.111154735489851   0.055564325144096   0.624947748544979   1.0000000
N2   N   0.611212552392944   0.555677567610955   0.628152216931590   1.0000000
N2   N   0.444520569547929   0.055574034256344   0.625082463744575   1.0000000
N2   N   0.944488567477066   0.555578204006961   0.624972568186392   1.0000000
N2   N   0.111167535983367   0.555591008167434   0.125082492650015   1.0000000
N2   N   0.777857043478721   0.055595188406029   0.624985798309145   1.0000000
N2   N   0.277845125275490   0.055576406317866   0.124948787394998   1.0000000
N2   N   0.444515504011292   0.555610967066506   0.123697057835352   1.0000000
N2   N   0.777816384444760   0.555574858889056   0.124012149398122   1.0000000
N2   N   0.611191195193766   0.055579743167604   0.125003974430324   1.0000000
N2   N   0.444515504011292   0.555610967066506   0.626302942164652   1.0000000
N2   N   0.944507042661098   0.055584669858279   0.125020061288561   1.0000000
N2   N   0.277844589998611   0.722261851284430   0.624963966660042   1.0000000
N2   N   0.111152942227035   0.222243137780182   0.625076026920341   1.0000000
N2   N   0.444515504011292   0.222237870278124   0.626302942164652   1.0000000
N2   N   0.611172968945957   0.722284136869086   0.625754029420454   1.0000000
N2   N   0.944488567477066   0.722243696803443   0.624972568186392   1.0000000
N2   N   0.777845374580558   0.222249321525749   0.625085198132757   1.0000000
N2   N   0.111164520635957   0.722248926984645   0.125053616912431   1.0000000
N2   N   0.444520569547929   0.722279868624926   0.124917536255427   1.0000000
N2   N   0.277781070048895   0.222206561878169   0.124098590686814   1.0000000
N2   N   0.777835265429914   0.722262089431514   0.124418170049824   1.0000000
N2   N   0.611172968945957   0.222222165410199   0.124245970579541   1.0000000
N2   N   0.944507042661098   0.222255706136156   0.125020061288561   1.0000000
N2   N   0.111154735489851   0.388923743679085   0.624947748544979   1.0000000
N2   N   0.277844589998611   0.888916072047509   0.624963966660042   1.0000000
N2   N   0.611191195193766   0.888944785359490   0.624996025569677   1.0000000
N2   N   0.444366282470053   0.388849807901691   0.627952694102986   1.0000000
N2   N   0.944501446759675   0.888914901586221   0.624914282689980   1.0000000
N2   N   0.111167535983367   0.888909861149263   0.125082492650015   1.0000000
N2   N   0.777835265429914   0.388906509331728   0.625581829950180   1.0000000
N2   N   0.444521414751049   0.888927374042187   0.125055576979445   1.0000000
N2   N   0.277781070048895   0.388907841504053   0.124098590686814   1.0000000
N2   N   0.277845125275490   0.555602052290958   0.124948787394998   1.0000000
N2   N   0.611212552392944   0.388868318115319   0.121847783068409   1.0000000
N2   N   0.777845374580558   0.888929386388139   0.124914801867243   1.0000000
N2   N   0.944501446759675   0.388919878506788   0.125085717310022   1.0000000
N2   N   0.111167535983367   0.555591008167434   0.624917507349986   1.0000000
N2   N   0.277845125275490   0.055576406317866   0.625051212605003   1.0000000
N2   N   0.777816384444760   0.555574858889056   0.625987850601875   1.0000000
N2   N   0.611191195193766   0.055579743167604   0.624996025569677   1.0000000
N2   N   0.944507042661098   0.055584669858279   0.624979938711438   1.0000000
N2   N   0.056800303451060   0.111880613604917   0.375000000000000   1.0000000
N2   N   0.554213336041730   0.622028993134905   0.375000000000000   1.0000000
N2   N   0.385691234749087   0.101693881186367   0.375000000000000   1.0000000
N2   N   0.885245190165531   0.609289261749437   0.375000000000000   1.0000000
N2   N   0.722983082892155   0.110311337605766   0.375000000000000   1.0000000
N2   N   0.055572686689111   0.777787169346849   0.875000000000000   1.0000000
N2   N   0.388902905650679   0.777788575265722   0.875000000000000   1.0000000
N2   N   0.222234956474867   0.277784144904101   0.875000000000000   1.0000000
N2   N   0.722242903517689   0.777789648933283   0.875000000000000   1.0000000
N2   N   0.555569403662545   0.277776790189498   0.875000000000000   1.0000000
N2   N   0.888908847098217   0.277788206030005   0.875000000000000   1.0000000
N2   N   0.218694285143449   0.776013809238393   0.375000000000000   1.0000000
N2   N   0.056800303451060   0.278253023179478   0.375000000000000   1.0000000
N2   N   0.385051747737441   0.261758295875287   0.375000000000000   1.0000000
N2   N   0.554610940274802   0.782564369184847   0.375000000000000   1.0000000
N2   N   0.888260950036298   0.778476028740381   0.375000000000000   1.0000000
N2   N   0.722811786932018   0.275017871747482   0.375000000000000   1.0000000
N2   N   0.055569535890214   0.944450354532018   0.875000000000000   1.0000000
N2   N   0.388902905650679   0.944447663718300   0.875000000000000   1.0000000
N2   N   0.222232248726432   0.444455504071144   0.875000000000000   1.0000000
N2   N   0.555573044858314   0.444453189095821   0.875000000000000   1.0000000
N2   N   0.722238201194350   0.944453367461311   0.875000000000000   1.0000000
N2   N   0.888913046298199   0.444455558373015   0.875000000000000   1.0000000
N2   N   0.054246641272722   0.444224788043995   0.375000000000000   1.0000000
N2   N   0.218843876311063   0.940758273793894   0.375000000000000   1.0000000
N2   N   0.554675899871281   0.944004616602298   0.375000000000000   1.0000000
N2   N   0.385051747737441   0.456626785195489   0.375000000000000   1.0000000
N2   N   0.889766923061931   0.945866235004752   0.375000000000000   1.0000000
N2   N   0.722239105030919   0.441570398233847   0.375000000000000   1.0000000
N2   N   0.222233122576774   0.611119830968195   0.875000000000000   1.0000000
N2   N   0.055570669442029   0.111116951503952   0.875000000000000   1.0000000
N2   N   0.555569403662545   0.611125946806387   0.875000000000000   1.0000000
N2   N   0.388900546765561   0.111108124919828   0.875000000000000   1.0000000
N2   N   0.888917970932038   0.611125652132683   0.875000000000000   1.0000000
N2   N   0.052232963300657   0.609863917691795   0.375000000000000   1.0000000
N2   N   0.722238201194350   0.111118167066372   0.875000000000000   1.0000000
N2   N   0.220195001893613   0.107591534367397   0.375000000000000   1.0000000
N2   N   0.385691234749087   0.617330686896061   0.375000000000000   1.0000000
N2   N   0.722239105030919   0.614002040130410   0.375000000000000   1.0000000
N2   N   0.554610940274802   0.105379904423293   0.375000000000000   1.0000000
N2   N   0.388900546765561   0.611125755179073   0.875000000000000   1.0000000
N2   N   0.890241224185999   0.111787278759669   0.375000000000000   1.0000000
N2   N   0.222234608224562   0.777783970778950   0.875000000000000   1.0000000
N2   N   0.055570669442029   0.277787051271412   0.875000000000000   1.0000000
N2   N   0.388902191630235   0.277775435263696   0.875000000000000   1.0000000
N2   N   0.555569659146439   0.777789960231820   0.875000000000000   1.0000000
N2   N   0.888913046298199   0.777790821258530   0.875000000000000   1.0000000
N2   N   0.722242903517689   0.277786587917738   0.875000000000000   1.0000000
N2   N   0.052232963300657   0.775702378942202   0.375000000000000   1.0000000
N2   N   0.386144142036164   0.778809427015040   0.375000000000000   1.0000000
N2   N   0.224816497560309   0.279074915446821   0.375000000000000   1.0000000
N2   N   0.722811786932018   0.781127248517872   0.375000000000000   1.0000000
N2   N   0.554213336041730   0.265517676240154   0.375000000000000   1.0000000
N2   N   0.889766923061931   0.277234021390517   0.375000000000000   1.0000000
N2   N   0.055569535890214   0.444452514691520   0.875000000000000   1.0000000
N2   N   0.222233122576774   0.944446624941920   0.875000000000000   1.0000000
N2   N   0.555569572799275   0.944451453066305   0.875000000000000   1.0000000
N2   N   0.388902191630235   0.444460089699878   0.875000000000000   1.0000000
N2   N   0.888908847098217   0.944453974401547   0.875000000000000   1.0000000
N2   N   0.054246641272722   0.943355186562057   0.375000000000000   1.0000000
N2   N   0.722252626791787   0.444459646947216   0.875000000000000   1.0000000
N2   N   0.386144142036164   0.940668048354460   0.375000000000000   1.0000000
N2   N   0.220195001893613   0.445936800859551   0.375000000000000   1.0000000
N2   N   0.218843876311063   0.611418935850504   0.375000000000000   1.0000000
N2   N   0.722983082892155   0.946005078619724   0.375000000000000   1.0000000
N2   N   0.888260950036298   0.443118254629250   0.375000000000000   1.0000000
N2   N   0.055572686689111   0.611118850675604   0.875000000000000   1.0000000
N2   N   0.222232248726432   0.111110077988624   0.875000000000000   1.0000000
N2   N   0.722252626791787   0.611126313177906   0.875000000000000   1.0000000
N2   N   0.555569659146439   0.111113032247962   0.875000000000000   1.0000000
N2   N   0.888907870325775   0.111120601829558   0.875000000000000   1.0000000
B2   B   0.110263473538037   0.054289557197477   0.375000000000000   1.0000000
B2   B   0.615308454898025   0.575688558475551   0.375000000000000   1.0000000
B2   B   0.443034708154388   0.049862913513875   0.375000000000000   1.0000000
B2   B   0.941636674954992   0.554138992983076   0.375000000000000   1.0000000
B2   B   0.779382659812833   0.056357996573087   0.375000000000000   1.0000000
B2   B   0.111129441965215   0.722231387649270   0.875000000000000   1.0000000
B2   B   0.444450413899808   0.722224278517365   0.875000000000000   1.0000000
B2   B   0.277788468439576   0.222229240791170   0.875000000000000   1.0000000
B2   B   0.777799165229216   0.722234992201092   0.875000000000000   1.0000000
B2   B   0.611118875732519   0.222225147888502   0.875000000000000   1.0000000
B2   B   0.944475794888221   0.222235032307100   0.875000000000000   1.0000000
B2   B   0.274944775525386   0.721959364683054   0.375000000000000   1.0000000
B2   B   0.113633120770126   0.223483227051728   0.375000000000000   1.0000000
B2   B   0.440880664023454   0.210180109082985   0.375000000000000   1.0000000
B2   B   0.611813291430386   0.730740798285305   0.375000000000000   1.0000000
B2   B   0.941636674954992   0.720831015305252   0.375000000000000   1.0000000
B2   B   0.779126192780267   0.220864252932318   0.375000000000000   1.0000000
B2   B   0.111130305452380   0.888905891378084   0.875000000000000   1.0000000
B2   B   0.444455316583750   0.888894324958546   0.875000000000000   1.0000000
B2   B   0.277788468439576   0.388892560981734   0.875000000000000   1.0000000
B2   B   0.611114401818316   0.388893947729908   0.875000000000000   1.0000000
B2   B   0.777801069449886   0.888904682035269   0.875000000000000   1.0000000
B2   B   0.944472050481087   0.388895824378184   0.875000000000000   1.0000000
B2   B   0.110263473538037   0.389307249673889   0.375000000000000   1.0000000
B2   B   0.274944775525386   0.886318744175653   0.375000000000000   1.0000000
B2   B   0.611781347433804   0.891726483806738   0.375000000000000   1.0000000
B2   B   0.944093237037856   0.889410765871079   0.375000000000000   1.0000000
B2   B   0.778459860308997   0.386231300207554   0.375000000000000   1.0000000
B2   B   0.277788353457149   0.555555170634328   0.875000000000000   1.0000000
B2   B   0.111133350009051   0.055572606509207   0.875000000000000   1.0000000
B2   B   0.611114401818316   0.555553787421742   0.875000000000000   1.0000000
B2   B   0.444450413899808   0.055559468715777   0.875000000000000   1.0000000
B2   B   0.944471639507380   0.555565371095428   0.875000000000000   1.0000000
B2   B   0.108305153052657   0.555039850606812   0.375000000000000   1.0000000
B2   B   0.777802241586962   0.055567787460145   0.875000000000000   1.0000000
B2   B   0.274878048736890   0.051093602874053   0.375000000000000   1.0000000
B2   B   0.440880664023454   0.564033888273809   0.375000000000000   1.0000000
B2   B   0.774412154539110   0.553872743936220   0.375000000000000   1.0000000
B2   B   0.611781347433804   0.053388196960396   0.375000000000000   1.0000000
B2   B   0.444445361611501   0.555555128827022   0.875000000000000   1.0000000
B2   B   0.946076586857429   0.056868906870727   0.375000000000000   1.0000000
B2   B   0.277792273451968   0.722226284077846   0.875000000000000   1.0000000
B2   B   0.111137157491997   0.222235245412663   0.875000000000000   1.0000000
B2   B   0.444445361611501   0.222223566117815   0.875000000000000   1.0000000
B2   B   0.611118875732519   0.722227061177345   0.875000000000000   1.0000000
B2   B   0.944471639507380   0.722239601745293   0.875000000000000   1.0000000
B2   B   0.777801069449886   0.222229720747954   0.875000000000000   1.0000000
B2   B   0.107884583869780   0.720608958601553   0.375000000000000   1.0000000
B2   B   0.443034708154388   0.726505127973851   0.375000000000000   1.0000000
B2   B   0.277559926447083   0.219194145876776   0.375000000000000   1.0000000
B2   B   0.778459860308997   0.725561893434769   0.375000000000000   1.0000000
B2   B   0.611813291430386   0.214405826478415   0.375000000000000   1.0000000
B2   B   0.946076586857429   0.222541013320039   0.375000000000000   1.0000000
B2   B   0.111133350009051   0.388894076833174   0.875000000000000   1.0000000
B2   B   0.277792273451968   0.888899322707448   0.875000000000000   1.0000000
B2   B   0.611127068318905   0.888898284361979   0.875000000000000   1.0000000
B2   B   0.444448087934314   0.388890710633821   0.875000000000000   1.0000000
B2   B   0.944472050481087   0.888909559436230   0.875000000000000   1.0000000
B2   B   0.108305153052657   0.886598635779171   0.375000000000000   1.0000000
B2   B   0.777799165229216   0.388897506361444   0.875000000000000   1.0000000
B2   B   0.443184683735897   0.888259008534619   0.375000000000000   1.0000000
B2   B   0.277559926447083   0.391699113903640   0.375000000000000   1.0000000
B2   B   0.274878048736890   0.557117779196175   0.375000000000000   1.0000000
B2   B   0.615308454898025   0.372953229755803   0.375000000000000   1.0000000
B2   B   0.779126192780267   0.891595273181281   0.375000000000000   1.0000000
B2   B   0.944093237037856   0.388015804500110   0.375000000000000   1.0000000
B2   B   0.111130305452380   0.555557747407632   0.875000000000000   1.0000000
B2   B   0.277788353457149   0.055566516156156   0.875000000000000   1.0000000
B2   B   0.777802323654650   0.555567828493994   0.875000000000000   1.0000000
B2   B   0.611127068318905   0.055562117290250   0.875000000000000   1.0000000
B2   B   0.944475794888221   0.055574095914454   0.875000000000000   1.0000000
B2   B   0.055645222752980   0.111165730068717   0.125057245291173   1.0000000
B2   B   0.555569794842164   0.611152669611652   0.123084762477719   1.0000000
B2   B   0.388934604643508   0.111127280114323   0.124656147336033   1.0000000
B2   B   0.888947693465528   0.611140513399439   0.124676806809326   1.0000000
B2   B   0.722298053600774   0.111130013718794   0.124972219637188   1.0000000
B2   B   0.055639172258215   0.777830274899518   0.624953163551555   1.0000000
B2   B   0.388953240997955   0.777814401921094   0.624976616890700   1.0000000
B2   B   0.222279897191721   0.277806615262524   0.625477442097744   1.0000000
B2   B   0.722275372989234   0.777838630137304   0.625565170951750   1.0000000
B2   B   0.555569794842164   0.277750458563847   0.626915237522283   1.0000000
B2   B   0.888973067208730   0.277796522676993   0.624998538509495   1.0000000
B2   B   0.222298871179447   0.777816102256397   0.125016496547519   1.0000000
B2   B   0.055645222752980   0.277812826017597   0.125057245291173   1.0000000
B2   B   0.388799677061282   0.277669556998455   0.123323992199386   1.0000000
B2   B   0.555605458218257   0.777838120517681   0.124733579930201   1.0000000
B2   B   0.888968474594838   0.777844525000504   0.124827259289585   1.0000000
B2   B   0.722275372989234   0.277770076185269   0.124434829048250   1.0000000
B2   B   0.055643691461555   0.944508222952284   0.624895861934846   1.0000000
B2   B   0.388953240997955   0.944472172410192   0.624976616890700   1.0000000
B2   B   0.222280985821128   0.444464667490771   0.625117349238704   1.0000000
B2   B   0.555620486278039   0.444476909805684   0.627686947971419   1.0000000
B2   B   0.722298053600774   0.944501373215326   0.625027780362809   1.0000000
B2   B   0.888968474594838   0.444457282927661   0.625172740710412   1.0000000
B2   B   0.055643691461555   0.444468801842600   0.125104138065151   1.0000000
B2   B   0.222304191918414   0.944501227455018   0.125062554614292   1.0000000
B2   B   0.555621053785129   0.944477193559231   0.125030019668726   1.0000000
B2   B   0.388799677061282   0.444463453396161   0.123323992199386   1.0000000
B2   B   0.888973067208730   0.944509877865073   0.125001461490503   1.0000000
B2   B   0.722251429022108   0.444431110300536   0.123194779843810   1.0000000
B2   B   0.222304191918414   0.611136297796736   0.624937445385709   1.0000000
B2   B   0.055645222752980   0.111165730068717   0.624942754708818   1.0000000
B2   B   0.555569794842164   0.611152669611652   0.626915237522283   1.0000000
B2   B   0.388934604643508   0.111127280114323   0.625343852663965   1.0000000
B2   B   0.888947693465528   0.611140513399439   0.625323193190677   1.0000000
B2   B   0.055639172258215   0.611142230692028   0.125046836448441   1.0000000
B2   B   0.722298053600774   0.111130013718794   0.625027780362809   1.0000000
B2   B   0.222280985821128   0.111149651663692   0.124882650761302   1.0000000
B2   B   0.388934604643508   0.611140657862535   0.124656147336033   1.0000000
B2   B   0.722251429022108   0.611153652054905   0.123194779843810   1.0000000
B2   B   0.555605458218257   0.111100671033913   0.124733579930201   1.0000000
B2   B   0.388934604643508   0.611140657862535   0.625343852663965   1.0000000
B2   B   0.888981052829631   0.111157193081486   0.125015923803464   1.0000000
B2   B   0.222298871179447   0.777816102256397   0.624983503452482   1.0000000
B2   B   0.055645222752980   0.277812826017597   0.624942754708818   1.0000000
B2   B   0.388799677061282   0.277669556998455   0.626676007800615   1.0000000
B2   B   0.555605458218257   0.777838120517681   0.625266420069795   1.0000000
B2   B   0.888968474594838   0.777844525000504   0.625172740710412   1.0000000
B2   B   0.722275372989234   0.277770076185269   0.625565170951750   1.0000000
B2   B   0.055639172258215   0.777830274899518   0.125046836448441   1.0000000
B2   B   0.388953240997955   0.777814401921094   0.125023383109303   1.0000000
B2   B   0.222279897191721   0.277806615262524   0.124522557902257   1.0000000
B2   B   0.722275372989234   0.777838630137304   0.124434829048250   1.0000000
B2   B   0.555569794842164   0.277750458563847   0.123084762477719   1.0000000
B2   B   0.888973067208730   0.277796522676993   0.125001461490503   1.0000000
B2   B   0.055643691461555   0.444468801842600   0.624895861934846   1.0000000
B2   B   0.222304191918414   0.944501227455018   0.624937445385709   1.0000000
B2   B   0.555621053785129   0.944477193559231   0.624969980331275   1.0000000
B2   B   0.388799677061282   0.444463453396161   0.626676007800615   1.0000000
B2   B   0.888973067208730   0.944509877865073   0.624998538509495   1.0000000
B2   B   0.055643691461555   0.944508222952284   0.125104138065151   1.0000000
B2   B   0.722251429022108   0.444431110300536   0.626805220156189   1.0000000
B2   B   0.388953240997955   0.944472172410192   0.125023383109303   1.0000000
B2   B   0.222280985821128   0.444464667490771   0.124882650761302   1.0000000
B2   B   0.222304191918414   0.611136297796736   0.125062554614292   1.0000000
B2   B   0.555620486278039   0.444476909805684   0.122313052028578   1.0000000
B2   B   0.722298053600774   0.944501373215326   0.124972219637188   1.0000000
B2   B   0.888968474594838   0.444457282927661   0.124827259289585   1.0000000
B2   B   0.055639172258215   0.611142230692028   0.624953163551555   1.0000000
B2   B   0.222280985821128   0.111149651663692   0.625117349238704   1.0000000
B2   B   0.722251429022108   0.611153652054905   0.626805220156189   1.0000000
B2   B   0.555605458218257   0.111100671033913   0.625266420069795   1.0000000
B2   B   0.888981052829631   0.111157193081486   0.624984076196540   1.0000000


