data_1
_audit_creation_method   'vasp2cif'
_cell_length_a    17.52789999999977
_cell_length_b    17.52789999999977
_cell_length_c    15.0
_cell_angle_alpha    90.0
_cell_angle_beta    90.0
_cell_angle_gamma    119.99999999999916

_symmetry_space_group_name_H-M    'P 1'
loop_
_atom_site_label
_atom_site_type_symbol
_atom_site_fract_x
_atom_site_fract_y
_atom_site_fract_z
_atom_site_occupancy
Ge2   Ge   0.496174255469293   0.503827146447703   0.110812909285023   1.0000000
B2   B   0.905998533655790   0.953238715323630   0.111014082402137   1.0000000
B2   B   0.904548385875796   0.095453635320199   0.111034671822005   1.0000000
B2   B   0.904089299112183   0.238238088492544   0.111042282391756   1.0000000
B2   B   0.904230593985962   0.381090080277777   0.110996331885351   1.0000000
B2   B   0.905270053510414   0.523992031551987   0.111029289054625   1.0000000
B2   B   0.906881810052004   0.667269315016166   0.111099919533246   1.0000000
B2   B   0.907596358740044   0.811086418441654   0.111059238753678   1.0000000
B2   B   0.048278350264269   0.951723670931734   0.111012335405526   1.0000000
B2   B   0.046763305872373   0.094003487540208   0.111014082402137   1.0000000
B2   B   0.046381403260164   0.237219837977020   0.110987060934823   1.0000000
B2   B   0.046865042817575   0.380417577449891   0.111008606895666   1.0000000
B2   B   0.048117913567455   0.523309217187114   0.111009120848191   1.0000000
B2   B   0.048998016864958   0.666182563953208   0.111068905937064   1.0000000
B2   B   0.049081611461489   0.809114943827297   0.111062799992229   1.0000000
B2   B   0.190887077368707   0.950920409734515   0.111062799992229   1.0000000
B2   B   0.188915602754350   0.092405662455951   0.111059238753678   1.0000000
B2   B   0.187344096970175   0.234631693526565   0.111015499000400   1.0000000
B2   B   0.188668711301298   0.379141894166458   0.110995593475792   1.0000000
B2   B   0.191086047155597   0.522532554363401   0.111040319772503   1.0000000
B2   B   0.191869644131448   0.665522996513446   0.111028400813703   1.0000000
B2   B   0.191618876117629   0.808383145078375   0.111013388285095   1.0000000
B2   B   0.333819457243790   0.951004004331047   0.111068905937064   1.0000000
B2   B   0.332732706180832   0.093120211143994   0.111099919533246   1.0000000
B2   B   0.328974753138433   0.232440383224470   0.111025377430854   1.0000000
B2   B   0.327058543411718   0.375018751227074   0.111024279874343   1.0000000
B2   B   0.334274516117640   0.520899738524099   0.111091002451550   1.0000000
B2   B   0.335201268655970   0.664800752541028   0.111075501256225   1.0000000
B2   B   0.334479024683551   0.808132377064556   0.111028400813703   1.0000000
B2   B   0.476692804009883   0.951884107628548   0.111009120848191   1.0000000
B2   B   0.476009989645010   0.094731967685582   0.111029289054625   1.0000000
B2   B   0.474842896128140   0.237096465789972   0.111000097917452   1.0000000
B2   B   0.466934552740481   0.372415604408016   0.111063945196072   1.0000000
B2   B   0.479102282672899   0.665727505079358   0.111091002451550   1.0000000
B2   B   0.477469466833597   0.808915974040408   0.111040319772503   1.0000000
B2   B   0.619584443746113   0.953136978378430   0.111008606895666   1.0000000
B2   B   0.618911940918226   0.095771427210034   0.110996331885351   1.0000000
B2   B   0.618393705540402   0.238833708988108   0.111011961723109   1.0000000
B2   B   0.617664748103454   0.382337273092551   0.110991452723093   1.0000000
B2   B   0.627586416787987   0.533067468456518   0.111063945196072   1.0000000
B2   B   0.624983269968929   0.672943477785281   0.111024279874343   1.0000000
B2   B   0.620860127029545   0.811333309894706   0.110995593475792   1.0000000
B2   B   0.762782183218984   0.953620617935839   0.110987060934823   1.0000000
B2   B   0.761763932703460   0.095912722083812   0.111042282391756   1.0000000
B2   B   0.761328074117319   0.238673947078684   0.111039331296942   1.0000000
B2   B   0.761168312207895   0.381608315655602   0.111011961723109   1.0000000
B2   B   0.762905555406031   0.525159125068857   0.111000097917452   1.0000000
B2   B   0.767561637971534   0.671027268058566   0.111025377430854   1.0000000
B2   B   0.765370327669438   0.812657924225828   0.111015499000400   1.0000000
N2   N   0.953793396811719   0.905564489249104   0.110998650176197   1.0000000
N2   N   0.952237861757383   0.047763540160624   0.111004079895123   1.0000000
N2   N   0.951488204775791   0.190381202098886   0.111011583740647   1.0000000
N2   N   0.951622944594229   0.333326321397882   0.110992588970067   1.0000000
N2   N   0.952575651707749   0.476187622100906   0.110977494531245   1.0000000
N2   N   0.953716931662659   0.619080546966305   0.111077014893349   1.0000000
N2   N   0.954193214145023   0.762323103032358   0.111075237977964   1.0000000
N2   N   0.095980278635039   0.904021123282959   0.111014659027256   1.0000000
N2   N   0.094436912668894   0.046208005106287   0.110998650176197   1.0000000
N2   N   0.093048925299203   0.188554843897060   0.110984065719136   1.0000000
N2   N   0.093712810772669   0.332261169558862   0.110968397657459   1.0000000
N2   N   0.095479859394485   0.475532876780680   0.111001255925603   1.0000000
N2   N   0.096409603680338   0.618420664388649   0.111020050965794   1.0000000
N2   N   0.096491410299811   0.761252224378622   0.111024748917321   1.0000000
N2   N   0.238749177539383   0.903509991618188   0.111024748917321   1.0000000
N2   N   0.237678298885647   0.045808187772982   0.111075237977964   1.0000000
N2   N   0.234809485005177   0.186631641215585   0.111019209334646   1.0000000
N2   N   0.233365852370416   0.328948309151352   0.110985192728977   1.0000000
N2   N   0.238104871260611   0.474406156596626   0.111028633513746   1.0000000
N2   N   0.239515083210009   0.617804705391299   0.111033395188308   1.0000000
N2   N   0.239257627516323   0.760743774401683   0.110998322422564   1.0000000
N2   N   0.381580737529351   0.903591798237661   0.111020050965794   1.0000000
N2   N   0.380920854951692   0.046284470255347   0.111077014893349   1.0000000
N2   N   0.379593713613803   0.188119072352915   0.111024054008976   1.0000000
N2   N   0.374009012211255   0.326230660240733   0.111005905590096   1.0000000
N2   N   0.376006598592098   0.468179644603915   0.111020966300250   1.0000000
N2   N   0.383092502357850   0.616908899560148   0.111097704379219   1.0000000
N2   N   0.382196696526699   0.760486318707996   0.111033395188308   1.0000000
N2   N   0.524468525136318   0.904521542523513   0.111001255925603   1.0000000
N2   N   0.523813779816091   0.047425750210256   0.110977494531245   1.0000000
N2   N   0.523150296796036   0.190371493013579   0.110998806274779   1.0000000
N2   N   0.521778779543287   0.333407476658039   0.110987474632859   1.0000000
N2   N   0.531821757313082   0.623994803325901   0.111020966300250   1.0000000
N2   N   0.525595245320373   0.761896530657395   0.111028633513746   1.0000000
N2   N   0.667740232358134   0.906288591145330   0.110968397657459   1.0000000
N2   N   0.666675080519113   0.048378457323778   0.110992588970067   1.0000000
N2   N   0.666098076348175   0.191230143827033   0.110998318652955   1.0000000
N2   N   0.665468348816317   0.334533053100682   0.110983590395167   1.0000000
N2   N   0.666593925258958   0.478222622373709   0.110987474632859   1.0000000
N2   N   0.673770741676264   0.625992389706743   0.111005905590096   1.0000000
N2   N   0.671053092765644   0.766635549547590   0.110985192728977   1.0000000
N2   N   0.811446558020938   0.906952476618797   0.110984065719136   1.0000000
N2   N   0.809620199819114   0.048513197142214   0.111011583740647   1.0000000
N2   N   0.808954312204767   0.191047089713231   0.111043576158914   1.0000000
N2   N   0.808771258090965   0.333903325568823   0.110998318652955   1.0000000
N2   N   0.809629908904418   0.476851105120961   0.110998806274779   1.0000000
N2   N   0.811882329565083   0.620407688304195   0.111024054008976   1.0000000
N2   N   0.813369760702414   0.765191916912829   0.111019209334646   1.0000000


