data_1
_audit_creation_method   'vasp2cif'
_cell_length_a    17.52789999999977
_cell_length_b    17.52789999999977
_cell_length_c    15.0
_cell_angle_alpha    90.0
_cell_angle_beta    90.0
_cell_angle_gamma    119.99999999999916

_symmetry_space_group_name_H-M    'P 1'
loop_
_atom_site_label
_atom_site_type_symbol
_atom_site_fract_x
_atom_site_fract_y
_atom_site_fract_z
_atom_site_occupancy
Al2   Al   0.541184478144865   0.458816923772125   0.110866006527412   1.0000000
As2   As   0.473184445381680   0.526817575815325   0.110623688251327   1.0000000
B2   B   0.906158866843783   0.954578454547280   0.110992259557979   1.0000000
B2   B   0.904039811118341   0.095962210077651   0.110990257225374   1.0000000
B2   B   0.903654229593360   0.238270133359971   0.111022620052070   1.0000000
B2   B   0.904748412714572   0.381188900837398   0.110916801234990   1.0000000
B2   B   0.908280480571954   0.524981245350100   0.110960465096585   1.0000000
B2   B   0.909018894798018   0.669185119407161   0.111105199516635   1.0000000
B2   B   0.909843136239205   0.813941178650111   0.111056919447634   1.0000000
B2   B   0.047834426965711   0.952167594230299   0.110957882642913   1.0000000
B2   B   0.045423566648726   0.093843154352209   0.110992259557979   1.0000000
B2   B   0.044678317226585   0.236978811048574   0.110985008339529   1.0000000
B2   B   0.045333543640853   0.380664200004120   0.110961803950955   1.0000000
B2   B   0.047318683417065   0.524365009039581   0.110942268019994   1.0000000
B2   B   0.049195188253912   0.667513310329453   0.110995314124317   1.0000000
B2   B   0.049302423125073   0.810202023533199   0.111024027716127   1.0000000
B2   B   0.189799997662798   0.950699598070929   0.111024027716127   1.0000000
B2   B   0.186060842545884   0.090158884956802   0.111056919447634   1.0000000
B2   B   0.184251191665859   0.232976732309631   0.111123842430171   1.0000000
B2   B   0.185039852100051   0.378849699111058   0.111066934520381   1.0000000
B2   B   0.186395478131172   0.524037782223558   0.111042667655472   1.0000000
B2   B   0.190360708258293   0.667146236533489   0.111020736926961   1.0000000
B2   B   0.190710610835883   0.809291410360131   0.110990004505531   1.0000000
B2   B   0.332488710867554   0.950806832942092   0.110995314124317   1.0000000
B2   B   0.330816901789847   0.090983126397972   0.111105199516635   1.0000000
B2   B   0.322942635130507   0.226635344913393   0.111276610013924   1.0000000
B2   B   0.322202296522904   0.371965294594125   0.111027858936966   1.0000000
B2   B   0.323446232650476   0.522977023164081   0.110989904428972   1.0000000
B2   B   0.332402516740340   0.667599504456655   0.111055307672406   1.0000000
B2   B   0.332855784663513   0.809641312937704   0.111020736926961   1.0000000
B2   B   0.475637012157413   0.952683337778930   0.110942268019994   1.0000000
B2   B   0.475020775846894   0.091721540624034   0.110960465096585   1.0000000
B2   B   0.473836047851494   0.228855975208379   0.111342193308078   1.0000000
B2   B   0.455830872520763   0.349556115304173   0.110557732739129   1.0000000
B2   B   0.477024998032925   0.676555788546527   0.110989904428972   1.0000000
B2   B   0.475964238973438   0.813606543064834   0.111042667655472   1.0000000
B2   B   0.619337821191881   0.954668477555148   0.110961803950955   1.0000000
B2   B   0.618813120358611   0.095253608481416   0.110916801234990   1.0000000
B2   B   0.619028487419396   0.236212861621671   0.110999691336564   1.0000000
B2   B   0.621451663674531   0.378550357521470   0.111344980120706   1.0000000
B2   B   0.650445905891826   0.544171148676234   0.110557732739129   1.0000000
B2   B   0.628036726601863   0.677799724674089   0.111027858936966   1.0000000
B2   B   0.621152322084946   0.814962169095947   0.111066934520381   1.0000000
B2   B   0.763023210147441   0.955323703969435   0.110985008339529   1.0000000
B2   B   0.761731887836039   0.096347791602638   0.111022620052070   1.0000000
B2   B   0.761846520661813   0.238155500534190   0.110993084033156   1.0000000
B2   B   0.763789159574337   0.380973533776607   0.110999691336564   1.0000000
B2   B   0.771146045987622   0.526165973345501   0.111342193308078   1.0000000
B2   B   0.773366676282610   0.677059386066491   0.111276610013924   1.0000000
B2   B   0.767025288886375   0.815750829530144   0.111123842430171   1.0000000
N2   N   0.954316672214580   0.907457300018637   0.110948056652007   1.0000000
N2   N   0.951532891182663   0.048468510735334   0.110963383371525   1.0000000
N2   N   0.950529846131332   0.190437105800319   0.110983428468188   1.0000000
N2   N   0.951027025816749   0.333084951312516   0.110951497864937   1.0000000
N2   N   0.953333155740180   0.476279089194673   0.110874179046916   1.0000000
N2   N   0.954892327497953   0.620136751923055   0.110994791515415   1.0000000
N2   N   0.955254714961102   0.764084044145310   0.111033194600446   1.0000000
N2   N   0.095430671105226   0.904570730812769   0.110984760065226   1.0000000
N2   N   0.092544101899349   0.045684729703432   0.110948056652007   1.0000000
N2   N   0.090761286796974   0.188017125937339   0.111001933906130   1.0000000
N2   N   0.091215652899075   0.331873587692602   0.110970610206743   1.0000000
N2   N   0.092595530830491   0.475811483808382   0.110955304541597   1.0000000
N2   N   0.095655621089558   0.619393289158487   0.110967714654218   1.0000000
N2   N   0.096231085895752   0.762255847497208   0.110989038717192   1.0000000
N2   N   0.237745554420807   0.903770316022243   0.110989038717192   1.0000000
N2   N   0.235917357772693   0.044746686956904   0.111033194600446   1.0000000
N2   N   0.229950582911845   0.183135950479652   0.111170116225554   1.0000000
N2   N   0.229222304302429   0.327551216848842   0.111126200650541   1.0000000
N2   N   0.230321664547850   0.474702952863491   0.111091766233866   1.0000000
N2   N   0.237093791217277   0.619354255520104   0.111030061672504   1.0000000
N2   N   0.238052584653079   0.761948817264925   0.110993151301855   1.0000000
N2   N   0.380608112759503   0.904345780828447   0.110967714654218   1.0000000
N2   N   0.379864649994935   0.045109074420053   0.110994791515415   1.0000000
N2   N   0.377398167499298   0.184803026085948   0.111243742634904   1.0000000
N2   N   0.365119244820937   0.318559018311739   0.111143797132596   1.0000000
N2   N   0.359088289699645   0.467033564056456   0.110770248611735   1.0000000
N2   N   0.379901082720169   0.620100319197830   0.111000432799125   1.0000000
N2   N   0.380647146397895   0.762907610700729   0.111030061672504   1.0000000
N2   N   0.524189918108604   0.907405871087509   0.110955304541597   1.0000000
N2   N   0.523722312722321   0.046668246177824   0.110874179046916   1.0000000
N2   N   0.523517966104839   0.185447366669008   0.111047618989684   1.0000000
N2   N   0.522217143184197   0.321873993278449   0.111422126874552   1.0000000
N2   N   0.532967837860540   0.640913112218364   0.110770248611735   1.0000000
N2   N   0.525298449053500   0.769679737370160   0.111091766233866   1.0000000
N2   N   0.668127814224400   0.908785749018926   0.110970610206743   1.0000000
N2   N   0.666916450604484   0.048974376101258   0.110951497864937   1.0000000
N2   N   0.666912788131940   0.189987456816984   0.110924372479290   1.0000000
N2   N   0.668201661124530   0.331799740792468   0.111064583196383   1.0000000
N2   N   0.678127408638557   0.477784258732800   0.111422126874552   1.0000000
N2   N   0.681442383605257   0.634882157097070   0.111143797132596   1.0000000
N2   N   0.672450185068159   0.770779097615573   0.111126200650541   1.0000000
N2   N   0.811984275980652   0.909240115121021   0.111001933906130   1.0000000
N2   N   0.809564296117685   0.049471555786679   0.110983428468188   1.0000000
N2   N   0.809078604132595   0.190922797785402   0.111031156222161   1.0000000
N2   N   0.810013945101013   0.333088613785055   0.110924372479290   1.0000000
N2   N   0.814554035248991   0.476483435812150   0.111047618989684   1.0000000
N2   N   0.815198375832063   0.622603234418697   0.111243742634904   1.0000000
N2   N   0.816865451438347   0.770050819006162   0.111170116225554   1.0000000


