data_1
_audit_creation_method   'vasp2cif'
_cell_length_a    17.52789999999977
_cell_length_b    17.52789999999977
_cell_length_c    15.0
_cell_angle_alpha    90.0
_cell_angle_beta    90.0
_cell_angle_gamma    119.99999999999916

_symmetry_space_group_name_H-M    'P 1'
loop_
_atom_site_label
_atom_site_type_symbol
_atom_site_fract_x
_atom_site_fract_y
_atom_site_fract_z
_atom_site_occupancy
B2   B   0.904941221951061   0.952423620457646   0.111003833540256   1.0000000
B2   B   0.904792134580932   0.095209886615064   0.111038075741446   1.0000000
B2   B   0.904769791245187   0.238040327859211   0.111036862459236   1.0000000
B2   B   0.904872473585488   0.380904227672121   0.110998817914751   1.0000000
B2   B   0.904908237980578   0.523790085523323   0.110998530327691   1.0000000
B2   B   0.904817977977948   0.666587016367607   0.111040297603902   1.0000000
B2   B   0.904603984336892   0.809210861553934   0.111028896791294   1.0000000
B2   B   0.047633909880593   0.952368111315411   0.111004668207714   1.0000000
B2   B   0.047578400738357   0.095060799244935   0.111003833540256   1.0000000
B2   B   0.047511299416534   0.237888064904283   0.110994811519299   1.0000000
B2   B   0.047452498848087   0.380826326859281   0.111013333874905   1.0000000
B2   B   0.047355165779920   0.523845618966024   0.111004717733105   1.0000000
B2   B   0.047565730850998   0.666740307070844   0.111011842391602   1.0000000
B2   B   0.047605672341573   0.809552962914428   0.110994277311796   1.0000000
B2   B   0.190449058281575   0.952396348854431   0.110994277311796   1.0000000
B2   B   0.190791159642069   0.095398036859105   0.111028896791294   1.0000000
B2   B   0.190225912973359   0.237510793204662   0.110993157793281   1.0000000
B2   B   0.190081204358081   0.380621698862418   0.110993695960042   1.0000000
B2   B   0.189631411554662   0.523934442268053   0.111035691827767   1.0000000
B2   B   0.190154563624326   0.666856288824701   0.111043870173138   1.0000000
B2   B   0.190367690795607   0.809634330400397   0.110994973030639   1.0000000
B2   B   0.333261714126154   0.952436290345006   0.111011842391602   1.0000000
B2   B   0.333415004829392   0.095184043218049   0.111040297603902   1.0000000
B2   B   0.334342460096055   0.238594627378461   0.111047782145615   1.0000000
B2   B   0.333277784356632   0.379268997343834   0.111050799258316   1.0000000
B2   B   0.332170502052640   0.525409155937799   0.111044146718408   1.0000000
B2   B   0.332702410209721   0.667299610987277   0.111084245686387   1.0000000
B2   B   0.333145732372297   0.809847457571677   0.111043870173138   1.0000000
B2   B   0.476156402230974   0.952646855416083   0.111004717733105   1.0000000
B2   B   0.476211935673675   0.095093783215425   0.110998530327691   1.0000000
B2   B   0.476463185295715   0.237654376556113   0.111028546446883   1.0000000
B2   B   0.478606043790623   0.381658658252430   0.111182813458816   1.0000000
B2   B   0.474592865259199   0.667831519144358   0.111044146718408   1.0000000
B2   B   0.476067578928945   0.810370609641342   0.111035691827767   1.0000000
B2   B   0.619175694336722   0.952549522347916   0.111013333874905   1.0000000
B2   B   0.619097793523882   0.095129547610508   0.110998817914751   1.0000000
B2   B   0.619245447969144   0.237723234587149   0.111010174146256   1.0000000
B2   B   0.619742095692663   0.380259925503340   0.111022903047891   1.0000000
B2   B   0.618343362943574   0.521395977406375   0.111182813458816   1.0000000
B2   B   0.620733023852170   0.666724236840366   0.111050799258316   1.0000000
B2   B   0.619380322333586   0.809920816837922   0.110993695960042   1.0000000
B2   B   0.762113956291721   0.952490721779469   0.110994811519299   1.0000000
B2   B   0.761961693336793   0.095232229950810   0.111036862459236   1.0000000
B2   B   0.762010063753491   0.237991957442512   0.111046067268905   1.0000000
B2   B   0.762278786608855   0.380756573226859   0.111010174146256   1.0000000
B2   B   0.762347644639884   0.523538835901283   0.111028546446883   1.0000000
B2   B   0.761407393817542   0.665659561100944   0.111047782145615   1.0000000
B2   B   0.762491227991342   0.809776108222644   0.110993157793281   1.0000000
N2   N   0.952352691530076   0.904588511720732   0.110999312477540   1.0000000
N2   N   0.952427302979333   0.047574098938672   0.111003204788184   1.0000000
N2   N   0.952292729702761   0.190365031515686   0.111013260878970   1.0000000
N2   N   0.952280237972739   0.333217495921333   0.111001764645035   1.0000000
N2   N   0.952269771077463   0.476125934405646   0.110968365807112   1.0000000
N2   N   0.952369194011185   0.619000670701004   0.111000632688285   1.0000000
N2   N   0.952365673278295   0.761777899487034   0.111011795781428   1.0000000
N2   N   0.095233787681491   0.904767614236508   0.110972545997499   1.0000000
N2   N   0.095412890197267   0.047648710387930   0.110999312477540   1.0000000
N2   N   0.095061122134251   0.190139597124703   0.110975820300046   1.0000000
N2   N   0.094886185054134   0.333038127834715   0.110980335647316   1.0000000
N2   N   0.094623118027611   0.476074457757550   0.111004292395936   1.0000000
N2   N   0.094967172024294   0.619089020842278   0.111007220198640   1.0000000
N2   N   0.095154049901245   0.761958885505993   0.110979589597542   1.0000000
N2   N   0.238042516412013   0.904847352016753   0.110979589597542   1.0000000
N2   N   0.238223502430972   0.047635728639710   0.111011795781428   1.0000000
N2   N   0.238776347889815   0.190736869121436   0.111007128016963   1.0000000
N2   N   0.237240155938816   0.332310188020179   0.110961758405764   1.0000000
N2   N   0.236487091539562   0.475914811539684   0.110987221107354   1.0000000
N2   N   0.237523485461929   0.619244345818479   0.111044039586234   1.0000000
N2   N   0.237895955519363   0.762105446398642   0.111014196995221   1.0000000
N2   N   0.380912381075721   0.905034229893705   0.111007220198640   1.0000000
N2   N   0.381000731216994   0.047632207906821   0.111000632688285   1.0000000
N2   N   0.381352653823018   0.190455172237353   0.111029611585341   1.0000000
N2   N   0.383165341143342   0.334226618901137   0.111074614801395   1.0000000
N2   N   0.369044846142464   0.470559869889475   0.110967809489577   1.0000000
N2   N   0.380067312470706   0.619934089447292   0.111066169356176   1.0000000
N2   N   0.380757056099520   0.762477916456076   0.111044039586234   1.0000000
N2   N   0.523926944159447   0.905378283890387   0.111004292395936   1.0000000
N2   N   0.523875467511351   0.047731630840543   0.110968365807112   1.0000000
N2   N   0.524029499279788   0.190221831064246   0.110998727786328   1.0000000
N2   N   0.524612612408506   0.332827475919923   0.111005526564096   1.0000000
N2   N   0.529441532027522   0.630956555775535   0.110967809489577   1.0000000
N2   N   0.524086590377313   0.763514310378444   0.110987221107354   1.0000000
N2   N   0.666963274082282   0.905115216863865   0.110980335647316   1.0000000
N2   N   0.666783905995664   0.047721163945266   0.111001764645035   1.0000000
N2   N   0.666818257156585   0.190278845304060   0.111009701903239   1.0000000
N2   N   0.667131275472117   0.332870126444880   0.110989848407952   1.0000000
N2   N   0.667173925997073   0.475388789508491   0.111005526564096   1.0000000
N2   N   0.665774783015859   0.616836060774657   0.111074614801395   1.0000000
N2   N   0.667691213896817   0.762761245979190   0.110961758405764   1.0000000
N2   N   0.809861804793296   0.904940279783747   0.110975820300046   1.0000000
N2   N   0.809636370402313   0.047708672215245   0.111013260878970   1.0000000
N2   N   0.809563658701194   0.190437743216797   0.111027476458446   1.0000000
N2   N   0.809722556613939   0.333183144760412   0.111009701903239   1.0000000
N2   N   0.809779570853753   0.475971902637209   0.110998727786328   1.0000000
N2   N   0.809546229680645   0.618648748094980   0.111029611585341   1.0000000
N2   N   0.809264532796563   0.761225054028191   0.111007128016963   1.0000000
O2   O   0.527171718895397   0.472829683021600   0.111500613214532   1.0000000


