data_1
_audit_creation_method   'vasp2cif'
_cell_length_a    14.93631414619966
_cell_length_b    14.936314146199727
_cell_length_c    13.341276283792837
_cell_angle_alpha    90.0
_cell_angle_beta    90.0
_cell_angle_gamma    119.99999999999984

_symmetry_space_group_name_H-M    'P 1'
loop_
_atom_site_label
_atom_site_type_symbol
_atom_site_fract_x
_atom_site_fract_y
_atom_site_fract_z
_atom_site_occupancy
C2   C   0.601177517733132   0.382238386802641   0.375000000000000   1.0000000
C2   C   0.442494225189326   0.386681811611799   0.375000000000000   1.0000000
C2   C   0.549008050285850   0.436591683788731   0.375000000000000   1.0000000
N2   N   0.111034939481057   0.055518869268854   0.124913907223575   1.0000000
N2   N   0.611058537624859   0.555456671457986   0.124589160113907   1.0000000
N2   N   0.444400587703500   0.055544135560833   0.124949325715302   1.0000000
N2   N   0.944410316192742   0.555520993034916   0.124783080430517   1.0000000
N2   N   0.777736014427285   0.055512272563554   0.124939352241005   1.0000000
N2   N   0.111068129391984   0.722193721662536   0.625091954399745   1.0000000
N2   N   0.444411291756774   0.722162587889868   0.625081434626142   1.0000000
N2   N   0.277665929748596   0.222160823016692   0.625087886203717   1.0000000
N2   N   0.777755137912070   0.722189882528977   0.625127915142546   1.0000000
N2   N   0.611078027592558   0.222172134548505   0.625455296845582   1.0000000
N2   N   0.944402944082831   0.222167986651110   0.625096701414392   1.0000000
N2   N   0.277740326812209   0.722183741468815   0.124889732831820   1.0000000
N2   N   0.111019619433255   0.222150331600159   0.124873772531736   1.0000000
N2   N   0.444372526046837   0.222190743090499   0.124958061128239   1.0000000
N2   N   0.611075148055446   0.722140106601585   0.124956478894499   1.0000000
N2   N   0.944422922988108   0.722221942343700   0.124834924894689   1.0000000
N2   N   0.777766592601664   0.222183960218199   0.124814531216492   1.0000000
N2   N   0.111066314341460   0.888877850982550   0.625092865472267   1.0000000
N2   N   0.444410287807343   0.888862871885188   0.625111612743107   1.0000000
N2   N   0.277710381043463   0.388804324500469   0.625030645097932   1.0000000
N2   N   0.611024435086125   0.388768760981446   0.626403039190623   1.0000000
N2   N   0.777737506441877   0.888841126860048   0.625043214238195   1.0000000
N2   N   0.944431936703069   0.388840230363594   0.625197522516185   1.0000000
N2   N   0.111069632976625   0.388831575818309   0.124955418112302   1.0000000
N2   N   0.277736910951349   0.888872332616133   0.124904128477521   1.0000000
N2   N   0.611073784010141   0.888838487690107   0.124904409633565   1.0000000
N2   N   0.444340089120650   0.388785596101121   0.124151428228638   1.0000000
N2   N   0.944405603103539   0.888872999583991   0.124916977054728   1.0000000
N2   N   0.777800687002220   0.388792053967251   0.123765321894883   1.0000000
N2   N   0.277739618404954   0.555491884511818   0.625087348932418   1.0000000
N2   N   0.111034939481057   0.055518869268854   0.625086092776426   1.0000000
N2   N   0.611058537624859   0.555456671457986   0.625410839886093   1.0000000
N2   N   0.444400587703500   0.055544135560833   0.625050674284698   1.0000000
N2   N   0.944410316192742   0.555520993034916   0.625216919569483   1.0000000
N2   N   0.111071575644624   0.555511415107877   0.124893811115691   1.0000000
N2   N   0.777736014427285   0.055512272563554   0.625060647758995   1.0000000
N2   N   0.277716630689871   0.055536262475773   0.124993166737370   1.0000000
N2   N   0.444408050012723   0.555472049048673   0.124868937600621   1.0000000
N2   N   0.777790136817473   0.555615072590587   0.123919061244843   1.0000000
N2   N   0.611080513424018   0.055524902133475   0.124873518546754   1.0000000
N2   N   0.444408050012723   0.555472049048673   0.625131062399378   1.0000000
N2   N   0.944383345399562   0.055507633530255   0.124904056161380   1.0000000
N2   N   0.277740326812209   0.722183741468815   0.625110267168180   1.0000000
N2   N   0.111019619433255   0.222150331600159   0.625126227468264   1.0000000
N2   N   0.444372526046837   0.222190743090499   0.625041938871762   1.0000000
N2   N   0.611075148055446   0.722140106601585   0.625043521105501   1.0000000
N2   N   0.944422922988108   0.722221942343700   0.625165075105311   1.0000000
N2   N   0.777766592601664   0.222183960218199   0.625185468783509   1.0000000
N2   N   0.111068129391984   0.722193721662536   0.124908045600256   1.0000000
N2   N   0.444411291756774   0.722162587889868   0.124918565373859   1.0000000
N2   N   0.277665929748596   0.222160823016692   0.124912113796283   1.0000000
N2   N   0.777755137912070   0.722189882528977   0.124872084857454   1.0000000
N2   N   0.611078027592558   0.222172134548505   0.124544703154419   1.0000000
N2   N   0.944402944082831   0.222167986651110   0.124903298585607   1.0000000
N2   N   0.111069632976625   0.388831575818309   0.625044581887699   1.0000000
N2   N   0.277736910951349   0.888872332616133   0.625095871522480   1.0000000
N2   N   0.611073784010141   0.888838487690107   0.625095590366434   1.0000000
N2   N   0.444340089120650   0.388785596101121   0.625848571771362   1.0000000
N2   N   0.944405603103539   0.888872999583991   0.625083022945272   1.0000000
N2   N   0.111066314341460   0.888877850982550   0.124907134527733   1.0000000
N2   N   0.777800687002220   0.388792053967251   0.626234678105118   1.0000000
N2   N   0.444410287807343   0.888862871885188   0.124888387256892   1.0000000
N2   N   0.277710381043463   0.388804324500469   0.124969354902068   1.0000000
N2   N   0.277739618404954   0.555491884511818   0.124912651067582   1.0000000
N2   N   0.611024435086125   0.388768760981446   0.123596960809376   1.0000000
N2   N   0.777737506441877   0.888841126860048   0.124956785761805   1.0000000
N2   N   0.944431936703069   0.388840230363594   0.124802477483814   1.0000000
N2   N   0.111071575644624   0.555511415107877   0.625106188884309   1.0000000
N2   N   0.277716630689871   0.055536262475773   0.625006833262630   1.0000000
N2   N   0.777790136817473   0.555615072590587   0.626080938755156   1.0000000
N2   N   0.611080513424018   0.055524902133475   0.625126481453246   1.0000000
N2   N   0.944383345399562   0.055507633530255   0.625095943838619   1.0000000
N2   N   0.053734158070419   0.110454718532750   0.375000000000000   1.0000000
N2   N   0.557230396529002   0.609967962416173   0.375000000000000   1.0000000
N2   N   0.387412398829278   0.111230220259485   0.375000000000000   1.0000000
N2   N   0.891679891272730   0.609880385152898   0.375000000000000   1.0000000
N2   N   0.722471133193249   0.116091081084905   0.375000000000000   1.0000000
N2   N   0.055554556865413   0.777776360225967   0.875000000000000   1.0000000
N2   N   0.388882237809666   0.777776442492011   0.875000000000000   1.0000000
N2   N   0.222219886007916   0.277780181202422   0.875000000000000   1.0000000
N2   N   0.722209296409733   0.777775697769374   0.875000000000000   1.0000000
N2   N   0.555545241709195   0.277762148594171   0.875000000000000   1.0000000
N2   N   0.888881683413597   0.277779752179618   0.875000000000000   1.0000000
N2   N   0.225168450295197   0.779349381475794   0.375000000000000   1.0000000
N2   N   0.054173264431493   0.278276420487725   0.375000000000000   1.0000000
N2   N   0.385627693377543   0.278135957577558   0.375000000000000   1.0000000
N2   N   0.557223011645425   0.777870258003920   0.375000000000000   1.0000000
N2   N   0.888716194416057   0.775286619447804   0.375000000000000   1.0000000
N2   N   0.722180401707676   0.289817282168618   0.375000000000000   1.0000000
N2   N   0.055548650142756   0.944440842773257   0.875000000000000   1.0000000
N2   N   0.388882166390599   0.944433884990938   0.875000000000000   1.0000000
N2   N   0.222219691146560   0.444449637413079   0.875000000000000   1.0000000
N2   N   0.555547847162021   0.444450715885767   0.875000000000000   1.0000000
N2   N   0.722209301302289   0.944438620095341   0.875000000000000   1.0000000
N2   N   0.888895132694644   0.444451948115675   0.875000000000000   1.0000000
N2   N   0.056811469107435   0.445955751960187   0.375000000000000   1.0000000
N2   N   0.222240704471499   0.944340080079287   0.375000000000000   1.0000000
N2   N   0.557019529309311   0.946161709771528   0.375000000000000   1.0000000
N2   N   0.388922872092151   0.441353519461834   0.375000000000000   1.0000000
N2   N   0.888097393121750   0.943374987772925   0.375000000000000   1.0000000
N2   N   0.222220183950011   0.611113951188996   0.875000000000000   1.0000000
N2   N   0.055548670563559   0.111106740090413   0.875000000000000   1.0000000
N2   N   0.555541262204999   0.611114787236816   0.875000000000000   1.0000000
N2   N   0.388883770644325   0.111100058419698   0.875000000000000   1.0000000
N2   N   0.888894244273016   0.611111890234730   0.875000000000000   1.0000000
N2   N   0.060677139349370   0.613636852875947   0.375000000000000   1.0000000
N2   N   0.722206835297762   0.111100244445910   0.875000000000000   1.0000000
N2   N   0.220605872464276   0.110432222385597   0.375000000000000   1.0000000
N2   N   0.390865322112132   0.610154842540499   0.375000000000000   1.0000000
N2   N   0.723375171649776   0.601123707299668   0.375000000000000   1.0000000
N2   N   0.556200427644972   0.113768828443621   0.375000000000000   1.0000000
N2   N   0.388881008838667   0.611114415573192   0.875000000000000   1.0000000
N2   N   0.887868447718549   0.112063541396563   0.375000000000000   1.0000000
N2   N   0.222221890830942   0.777777067848488   0.875000000000000   1.0000000
N2   N   0.055550549717310   0.277780249075904   0.875000000000000   1.0000000
N2   N   0.388887277236785   0.277776263693986   0.875000000000000   1.0000000
N2   N   0.555542566748188   0.777775990083171   0.875000000000000   1.0000000
N2   N   0.888881760879667   0.777774522247272   0.875000000000000   1.0000000
N2   N   0.722207260381195   0.277763473740767   0.875000000000000   1.0000000
N2   N   0.056738563780660   0.777570048856921   0.375000000000000   1.0000000
N2   N   0.391305926363618   0.778550699041155   0.375000000000000   1.0000000
N2   N   0.219744515611750   0.276893231873043   0.375000000000000   1.0000000
N2   N   0.722970250456165   0.774219143811811   0.375000000000000   1.0000000
N2   N   0.551632478151054   0.276298984238052   0.375000000000000   1.0000000
N2   N   0.888000837560657   0.280621798790514   0.375000000000000   1.0000000
N2   N   0.055554252250658   0.444450290816732   0.875000000000000   1.0000000
N2   N   0.222218697551469   0.944439161469834   0.875000000000000   1.0000000
N2   N   0.555541088669839   0.944432671417055   0.875000000000000   1.0000000
N2   N   0.388885215067913   0.444451874839336   0.875000000000000   1.0000000
N2   N   0.888881234563279   0.944440783379031   0.875000000000000   1.0000000
N2   N   0.054599146713593   0.943394475932027   0.375000000000000   1.0000000
N2   N   0.722218934815722   0.444445960646136   0.875000000000000   1.0000000
N2   N   0.390457168931534   0.945961139877687   0.375000000000000   1.0000000
N2   N   0.223154077163715   0.444563769105497   0.375000000000000   1.0000000
N2   N   0.225348061218724   0.612123129334079   0.375000000000000   1.0000000
N2   N   0.722706545078812   0.945063178048686   0.375000000000000   1.0000000
N2   N   0.891308901128508   0.448895521857117   0.375000000000000   1.0000000
N2   N   0.055561384261476   0.611114405318883   0.875000000000000   1.0000000
N2   N   0.222217632698489   0.111106492113788   0.875000000000000   1.0000000
N2   N   0.722206928388634   0.611112316170739   0.875000000000000   1.0000000
N2   N   0.555538049676254   0.111086116086769   0.875000000000000   1.0000000
N2   N   0.888880026234307   0.111107283277999   0.875000000000000   1.0000000
B2   B   0.109325433646492   0.054563358331401   0.375000000000000   1.0000000
B2   B   0.613055113380088   0.553579915169693   0.375000000000000   1.0000000
B2   B   0.445329260583515   0.057442591460544   0.375000000000000   1.0000000
B2   B   0.949936616596355   0.558446902700399   0.375000000000000   1.0000000
B2   B   0.776890579111460   0.057872972301406   0.375000000000000   1.0000000
B2   B   0.111068543093398   0.722185919314571   0.875000000000000   1.0000000
B2   B   0.444443047371825   0.722213389360186   0.875000000000000   1.0000000
B2   B   0.277828033468162   0.222251092973596   0.875000000000000   1.0000000
B2   B   0.777741306555183   0.722142659136810   0.875000000000000   1.0000000
B2   B   0.611132725425259   0.222271575128229   0.875000000000000   1.0000000
B2   B   0.944410803627857   0.222247831636109   0.875000000000000   1.0000000
B2   B   0.280322795235160   0.723246849238416   0.375000000000000   1.0000000
B2   B   0.108781977499592   0.221804011263893   0.375000000000000   1.0000000
B2   B   0.441498837366530   0.221915221716130   0.375000000000000   1.0000000
B2   B   0.612261868750323   0.721043565829041   0.375000000000000   1.0000000
B2   B   0.944590453512661   0.719713508447579   0.375000000000000   1.0000000
B2   B   0.776475740603754   0.230428571466768   0.375000000000000   1.0000000
B2   B   0.111085489057831   0.888849419221439   0.875000000000000   1.0000000
B2   B   0.444443445524579   0.888891760735427   0.875000000000000   1.0000000
B2   B   0.277811863919959   0.388914175973065   0.875000000000000   1.0000000
B2   B   0.611167835985814   0.388928108118155   0.875000000000000   1.0000000
B2   B   0.777750012381792   0.888850192104189   0.875000000000000   1.0000000
B2   B   0.944391635677402   0.388918721987854   0.875000000000000   1.0000000
B2   B   0.111274021847984   0.389656069159754   0.375000000000000   1.0000000
B2   B   0.279417104675140   0.890095736334352   0.375000000000000   1.0000000
B2   B   0.611907369982958   0.889510342973916   0.375000000000000   1.0000000
B2   B   0.943024832295982   0.886518868949101   0.375000000000000   1.0000000
B2   B   0.778064334988312   0.410162859551317   0.375000000000000   1.0000000
B2   B   0.277776839511572   0.555564242774380   0.875000000000000   1.0000000
B2   B   0.111107626562272   0.055542587608481   0.875000000000000   1.0000000
B2   B   0.611131427722426   0.555525762472521   0.875000000000000   1.0000000
B2   B   0.444470060466673   0.055578832544047   0.875000000000000   1.0000000
B2   B   0.944383437563529   0.555527914553636   0.875000000000000   1.0000000
B2   B   0.114207443033692   0.556962625987639   0.375000000000000   1.0000000
B2   B   0.777750679932689   0.055563859708101   0.875000000000000   1.0000000
B2   B   0.276531307894486   0.055107126989955   0.375000000000000   1.0000000
B2   B   0.446479215793013   0.553852939589062   0.375000000000000   1.0000000
B2   B   0.778853121781786   0.536549147988362   0.375000000000000   1.0000000
B2   B   0.611654229793479   0.058264847651553   0.375000000000000   1.0000000
B2   B   0.444472806598919   0.555554929293357   0.875000000000000   1.0000000
B2   B   0.942572282273173   0.054993622598176   0.375000000000000   1.0000000
B2   B   0.277760374262503   0.722213041078581   0.875000000000000   1.0000000
B2   B   0.111112907159533   0.222237027478076   0.875000000000000   1.0000000
B2   B   0.444514933374094   0.222271367723680   0.875000000000000   1.0000000
B2   B   0.611104269047234   0.722184758023459   0.875000000000000   1.0000000
B2   B   0.944387146729716   0.722143458274697   0.875000000000000   1.0000000
B2   B   0.777744459354532   0.222267395782026   0.875000000000000   1.0000000
B2   B   0.114065475147590   0.723774648146930   0.375000000000000   1.0000000
B2   B   0.446295307109542   0.721887771989247   0.375000000000000   1.0000000
B2   B   0.275100355560814   0.221545595326237   0.375000000000000   1.0000000
B2   B   0.777260129120802   0.714173106810774   0.375000000000000   1.0000000
B2   B   0.611982016547681   0.226347613894022   0.375000000000000   1.0000000
B2   B   0.942561183773660   0.223801492293567   0.375000000000000   1.0000000
B2   B   0.111091512520509   0.388910837864758   0.875000000000000   1.0000000
B2   B   0.277773037300761   0.888878151858924   0.875000000000000   1.0000000
B2   B   0.611096489247355   0.888878745159532   0.875000000000000   1.0000000
B2   B   0.444522927828783   0.388925292401379   0.875000000000000   1.0000000
B2   B   0.944407094601950   0.888830091311000   0.875000000000000   1.0000000
B2   B   0.110855005821347   0.888161941314512   0.375000000000000   1.0000000
B2   B   0.777743796709830   0.388922724563584   0.875000000000000   1.0000000
B2   B   0.446130859964682   0.890118546481894   0.375000000000000   1.0000000
B2   B   0.277383173859086   0.387827179831648   0.375000000000000   1.0000000
B2   B   0.279914564100985   0.555804443319499   0.375000000000000   1.0000000
B2   B   0.777140146454493   0.886686006689670   0.375000000000000   1.0000000
B2   B   0.944359106420130   0.392080366003544   0.375000000000000   1.0000000
B2   B   0.111070901222902   0.555553671158944   0.875000000000000   1.0000000
B2   B   0.277801714556314   0.055563138695287   0.875000000000000   1.0000000
B2   B   0.777740806092534   0.555496314910777   0.875000000000000   1.0000000
B2   B   0.611104809604825   0.055578670620437   0.875000000000000   1.0000000
B2   B   0.944420930305742   0.055543203327824   0.875000000000000   1.0000000
B2   B   0.055471067810819   0.111060381875476   0.125022610457470   1.0000000
B2   B   0.555635479180959   0.610898849039465   0.125111824213723   1.0000000
B2   B   0.388933063721278   0.111218367096815   0.125135928270218   1.0000000
B2   B   0.888614473321138   0.610898485306877   0.125242915651327   1.0000000
B2   B   0.722235289353390   0.111217455284442   0.125131883568684   1.0000000
B2   B   0.055371347822607   0.777643542064379   0.624850350072456   1.0000000
B2   B   0.388856856881573   0.777730220511153   0.624967015993611   1.0000000
B2   B   0.222164263357699   0.277723237452121   0.624980530098310   1.0000000
B2   B   0.722227512470257   0.777616113787527   0.624804324113378   1.0000000
B2   B   0.555740221285166   0.278030106770989   0.625133655360752   1.0000000
B2   B   0.888804182694305   0.277820032885035   0.624859365698622   1.0000000
B2   B   0.222092045498108   0.777700640539386   0.125062602859948   1.0000000
B2   B   0.055457706805881   0.277735945979706   0.125062892448191   1.0000000
B2   B   0.388953157720386   0.277848534315435   0.124913275618478   1.0000000
B2   B   0.555577025964888   0.777677554202835   0.125088103477332   1.0000000
B2   B   0.888781820604764   0.777605936750359   0.125184203381017   1.0000000
B2   B   0.722286810363714   0.278012532642859   0.124996001550442   1.0000000
B2   B   0.055454333362116   0.944361814659163   0.624931647839339   1.0000000
B2   B   0.388880893454015   0.944490305403526   0.624943002261984   1.0000000
B2   B   0.222160149882976   0.444361166292228   0.624896709867367   1.0000000
B2   B   0.555668243227397   0.444272088481344   0.624953625453963   1.0000000
B2   B   0.722212299392039   0.944409313089169   0.624893346086369   1.0000000
B2   B   0.888628048388102   0.444355285283878   0.624806358946556   1.0000000
B2   B   0.055383894202986   0.444371259014572   0.125157462563395   1.0000000
B2   B   0.222145544693659   0.944417485030231   0.125069073897905   1.0000000
B2   B   0.555578070234153   0.944487185044046   0.125054013805400   1.0000000
B2   B   0.388963437256452   0.444314661680073   0.124910395163076   1.0000000
B2   B   0.888826838378392   0.944355785315357   0.125090580739844   1.0000000
B2   B   0.722210827600857   0.444412529534758   0.126292091956864   1.0000000
B2   B   0.222098439045507   0.611012340678420   0.624932203633239   1.0000000
B2   B   0.055471067810819   0.111060381875476   0.624977389542529   1.0000000
B2   B   0.555635479180959   0.610898849039465   0.624888175786278   1.0000000
B2   B   0.388933063721278   0.111218367096815   0.624864071729783   1.0000000
B2   B   0.888614473321138   0.610898485306877   0.624757084348673   1.0000000
B2   B   0.055292346142937   0.610961243841989   0.125199094532731   1.0000000
B2   B   0.722235289353390   0.111217455284442   0.624868116431316   1.0000000
B2   B   0.222167566779728   0.111099920978753   0.125066527307228   1.0000000
B2   B   0.388895358597920   0.610990141534959   0.125076924558078   1.0000000
B2   B   0.722234926846738   0.610856364509383   0.125153922337766   1.0000000
B2   B   0.555647422461301   0.111306410639447   0.125080776733389   1.0000000
B2   B   0.388895358597920   0.610990141534959   0.624923075441922   1.0000000
B2   B   0.888830983317697   0.111102302308459   0.125077274690653   1.0000000
B2   B   0.222092045498108   0.777700640539386   0.624937397140053   1.0000000
B2   B   0.055457706805881   0.277735945979706   0.624937107551810   1.0000000
B2   B   0.388953157720386   0.277848534315435   0.625086724381522   1.0000000
B2   B   0.555577025964888   0.777677554202835   0.624911896522669   1.0000000
B2   B   0.888781820604764   0.777605936750359   0.624815796618984   1.0000000
B2   B   0.722286810363714   0.278012532642859   0.625003998449558   1.0000000
B2   B   0.055371347822607   0.777643542064379   0.125149649927543   1.0000000
B2   B   0.388856856881573   0.777730220511153   0.125032984006390   1.0000000
B2   B   0.222164263357699   0.277723237452121   0.125019469901691   1.0000000
B2   B   0.722227512470257   0.777616113787527   0.125195675886623   1.0000000
B2   B   0.555740221285166   0.278030106770989   0.124866344639247   1.0000000
B2   B   0.888804182694305   0.277820032885035   0.125140634301378   1.0000000
B2   B   0.055383894202986   0.444371259014572   0.624842537436605   1.0000000
B2   B   0.222145544693659   0.944417485030231   0.624930926102095   1.0000000
B2   B   0.555578070234153   0.944487185044046   0.624945986194599   1.0000000
B2   B   0.388963437256452   0.444314661680073   0.625089604836925   1.0000000
B2   B   0.888826838378392   0.944355785315357   0.624909419260156   1.0000000
B2   B   0.055454333362116   0.944361814659163   0.125068352160661   1.0000000
B2   B   0.722210827600857   0.444412529534758   0.623707908043134   1.0000000
B2   B   0.388880893454015   0.944490305403526   0.125056997738016   1.0000000
B2   B   0.222160149882976   0.444361166292228   0.125103290132633   1.0000000
B2   B   0.222098439045507   0.611012340678420   0.125067796366761   1.0000000
B2   B   0.555668243227397   0.444272088481344   0.125046374546037   1.0000000
B2   B   0.722212299392039   0.944409313089169   0.125106653913631   1.0000000
B2   B   0.888628048388102   0.444355285283878   0.125193641053445   1.0000000
B2   B   0.055292346142937   0.610961243841989   0.624800905467268   1.0000000
B2   B   0.222167566779728   0.111099920978753   0.624933472692773   1.0000000
B2   B   0.722234926846738   0.610856364509383   0.624846077662234   1.0000000
B2   B   0.555647422461301   0.111306410639447   0.624919223266611   1.0000000
B2   B   0.888830983317697   0.111102302308459   0.624922725309346   1.0000000


