data_1
_audit_creation_method   'vasp2cif'
_cell_length_a    14.93631414619966
_cell_length_b    14.936314146199727
_cell_length_c    13.341276283792837
_cell_angle_alpha    90.0
_cell_angle_beta    90.0
_cell_angle_gamma    119.99999999999984

_symmetry_space_group_name_H-M    'P 1'
loop_
_atom_site_label
_atom_site_type_symbol
_atom_site_fract_x
_atom_site_fract_y
_atom_site_fract_z
_atom_site_occupancy
C2   C   0.388831909528171   0.444348387001635   0.375000000000000   1.0000000
C2   C   0.458620024416771   0.417240048833543   0.375000000000000   1.0000000
C2   C   0.555516477473462   0.444348387001635   0.375000000000000   1.0000000
N2   N   0.111134524140771   0.055582089212528   0.125163071251044   1.0000000
N2   N   0.611133916471644   0.555607072301278   0.124326751477350   1.0000000
N2   N   0.444447565071758   0.055582089212528   0.125163071251044   1.0000000
N2   N   0.944446172424860   0.555561987489142   0.125021061744711   1.0000000
N2   N   0.777795504240586   0.055591008481170   0.125031116450106   1.0000000
N2   N   0.111113686661165   0.722227373322324   0.624968492514905   1.0000000
N2   N   0.444464081308557   0.722254928228735   0.625014081567515   1.0000000
N2   N   0.277810783191277   0.222253400301199   0.624898170857151   1.0000000
N2   N   0.777790846920177   0.722254928228735   0.625014081567515   1.0000000
N2   N   0.611114582144872   0.222246585163952   0.624892757093466   1.0000000
N2   N   0.944456388678630   0.222242171955583   0.624980975575574   1.0000000
N2   N   0.277785922913951   0.722233125131886   0.125040813456132   1.0000000
N2   N   0.111132003019087   0.222246585163952   0.125107242906533   1.0000000
N2   N   0.444442617109923   0.222253400301199   0.125101829142850   1.0000000
N2   N   0.611130570057245   0.722261140114485   0.124909983221992   1.0000000
N2   N   0.944447202217934   0.722233125131886   0.125040813456132   1.0000000
N2   N   0.777785783276952   0.222242171955583   0.125019024424427   1.0000000
N2   N   0.111117923770317   0.888904282549837   0.624923489845861   1.0000000
N2   N   0.444456682411954   0.888918222268404   0.624960934579208   1.0000000
N2   N   0.277765851353788   0.388889127897787   0.625360286494576   1.0000000
N2   N   0.611123276544004   0.388889127897787   0.625360286494576   1.0000000
N2   N   0.777802810602364   0.888931929010959   0.624956395953787   1.0000000
N2   N   0.944451023805221   0.388902047610444   0.624984659341322   1.0000000
N2   N   0.111117554879168   0.388902030507292   0.125022346076289   1.0000000
N2   N   0.277786358779528   0.888904282549837   0.125076510154139   1.0000000
N2   N   0.611129118408602   0.888931929010959   0.125043604046212   1.0000000
N2   N   0.444454494286914   0.388908988573828   0.124012206064314   1.0000000
N2   N   0.944461539856452   0.888918222268404   0.125039065420792   1.0000000
N2   N   0.777784475628133   0.388902030507292   0.125022346076289   1.0000000
N2   N   0.277792052378503   0.555567241744876   0.625017409688986   1.0000000
N2   N   0.111134524140771   0.055582089212528   0.624836928748956   1.0000000
N2   N   0.611133916471644   0.555607072301278   0.625673248522650   1.0000000
N2   N   0.444447565071758   0.055582089212528   0.624836928748956   1.0000000
N2   N   0.944446172424860   0.555561987489142   0.624978938255288   1.0000000
N2   N   0.111115815064284   0.555561987489142   0.125021061744711   1.0000000
N2   N   0.777795504240586   0.055591008481170   0.624968883549894   1.0000000
N2   N   0.277788205238875   0.055576410477750   0.125303989049644   1.0000000
N2   N   0.444473155829634   0.555607072301278   0.124326751477350   1.0000000
N2   N   0.777775189366372   0.555567241744876   0.124982590311015   1.0000000
N2   N   0.611116481093056   0.055588861585305   0.125066623249485   1.0000000
N2   N   0.444473155829634   0.555607072301278   0.625673248522650   1.0000000
N2   N   0.944472380492248   0.055588861585305   0.125066623249485   1.0000000
N2   N   0.277785922913951   0.722233125131886   0.624959186543868   1.0000000
N2   N   0.111132003019087   0.222246585163952   0.624892757093466   1.0000000
N2   N   0.444442617109923   0.222253400301199   0.624898170857151   1.0000000
N2   N   0.611130570057245   0.722261140114485   0.625090016778009   1.0000000
N2   N   0.944447202217934   0.722233125131886   0.624959186543868   1.0000000
N2   N   0.777785783276952   0.222242171955583   0.624980975575574   1.0000000
N2   N   0.111113686661165   0.722227373322324   0.125031507485094   1.0000000
N2   N   0.444464081308557   0.722254928228735   0.124985918432485   1.0000000
N2   N   0.277810783191277   0.222253400301199   0.125101829142850   1.0000000
N2   N   0.777790846920177   0.722254928228735   0.124985918432485   1.0000000
N2   N   0.611114582144872   0.222246585163952   0.125107242906533   1.0000000
N2   N   0.944456388678630   0.222242171955583   0.125019024424427   1.0000000
N2   N   0.111117554879168   0.388902030507292   0.624977653923710   1.0000000
N2   N   0.277786358779528   0.888904282549837   0.624923489845861   1.0000000
N2   N   0.611129118408602   0.888931929010959   0.624956395953787   1.0000000
N2   N   0.444454494286914   0.388908988573828   0.625987793935684   1.0000000
N2   N   0.944461539856452   0.888918222268404   0.624960934579208   1.0000000
N2   N   0.111117923770317   0.888904282549837   0.125076510154139   1.0000000
N2   N   0.777784475628133   0.388902030507292   0.624977653923710   1.0000000
N2   N   0.444456682411954   0.888918222268404   0.125039065420792   1.0000000
N2   N   0.277765851353788   0.388889127897787   0.124639713505424   1.0000000
N2   N   0.277792052378503   0.555567241744876   0.124982590311015   1.0000000
N2   N   0.611123276544004   0.388889127897787   0.124639713505424   1.0000000
N2   N   0.777802810602364   0.888931929010959   0.125043604046212   1.0000000
N2   N   0.944451023805221   0.388902047610444   0.125015340658677   1.0000000
N2   N   0.111115815064284   0.555561987489142   0.624978938255288   1.0000000
N2   N   0.277788205238875   0.055576410477750   0.624696010950356   1.0000000
N2   N   0.777775189366372   0.555567241744876   0.625017409688986   1.0000000
N2   N   0.611116481093056   0.055588861585305   0.624933376750514   1.0000000
N2   N   0.944472380492248   0.055588861585305   0.624933376750514   1.0000000
N2   N   0.056468333474573   0.110208780281475   0.375000000000000   1.0000000
N2   N   0.558362378763628   0.616724757527258   0.375000000000000   1.0000000
N2   N   0.386300732151310   0.109338991770299   0.375000000000000   1.0000000
N2   N   0.888086497197973   0.609778411549108   0.375000000000000   1.0000000
N2   N   0.721665644923140   0.111081765934285   0.375000000000000   1.0000000
N2   N   0.055563096745612   0.777791547932690   0.875000000000000   1.0000000
N2   N   0.388893947753151   0.777790501396854   0.875000000000000   1.0000000
N2   N   0.222224668985352   0.277784212983886   0.875000000000000   1.0000000
N2   N   0.722227367796962   0.777786051169525   0.875000000000000   1.0000000
N2   N   0.555559543998536   0.277784212983886   0.875000000000000   1.0000000
N2   N   0.888896117573474   0.277792235146953   0.875000000000000   1.0000000
N2   N   0.221292602273446   0.775984397499254   0.375000000000000   1.0000000
N2   N   0.057215045782953   0.276437003475125   0.375000000000000   1.0000000
N2   N   0.556058696068539   0.780075256948412   0.375000000000000   1.0000000
N2   N   0.889846410569174   0.778205781516376   0.375000000000000   1.0000000
N2   N   0.719221957692172   0.276437003475125   0.375000000000000   1.0000000
N2   N   0.055559102056550   0.944455111828171   0.875000000000000   1.0000000
N2   N   0.388896009771622   0.944455111828171   0.875000000000000   1.0000000
N2   N   0.222225709804171   0.444456338869982   0.875000000000000   1.0000000
N2   N   0.555561546923248   0.444454432301192   0.875000000000000   1.0000000
N2   N   0.722226112871053   0.944452225742106   0.875000000000000   1.0000000
N2   N   0.888898680138816   0.444459873919046   0.875000000000000   1.0000000
N2   N   0.054896946578528   0.442925642689870   0.375000000000000   1.0000000
N2   N   0.220763133407825   0.941526266815651   0.375000000000000   1.0000000
N2   N   0.555163399577368   0.945074301041354   0.375000000000000   1.0000000
N2   N   0.889910901463985   0.945074301041354   0.375000000000000   1.0000000
N2   N   0.721461274615719   0.442706715166851   0.375000000000000   1.0000000
N2   N   0.222224552157902   0.611124060281321   0.875000000000000   1.0000000
N2   N   0.055558802682651   0.111117381377637   0.875000000000000   1.0000000
N2   N   0.555559981543306   0.611119963086612   0.875000000000000   1.0000000
N2   N   0.388892926534479   0.111115807000829   0.875000000000000   1.0000000
N2   N   0.888899508123413   0.611124060281321   0.875000000000000   1.0000000
N2   N   0.054714655372904   0.609429310745808   0.375000000000000   1.0000000
N2   N   0.722224673133685   0.111119135768508   0.875000000000000   1.0000000
N2   N   0.223038259618983   0.109338991770299   0.375000000000000   1.0000000
N2   N   0.388948591045228   0.613207739220237   0.375000000000000   1.0000000
N2   N   0.724259148175001   0.613207739220237   0.375000000000000   1.0000000
N2   N   0.553740446806902   0.110208780281475   0.375000000000000   1.0000000
N2   N   0.388890366420468   0.611120966368807   0.875000000000000   1.0000000
N2   N   0.889416121011138   0.111081765934285   0.375000000000000   1.0000000
N2   N   0.222228451187078   0.777791547932690   0.875000000000000   1.0000000
N2   N   0.055560214888158   0.277788508717726   0.875000000000000   1.0000000
N2   N   0.388890943510955   0.277781887021918   0.875000000000000   1.0000000
N2   N   0.555558683372563   0.777786051169525   0.875000000000000   1.0000000
N2   N   0.888896553643695   0.777790501396854   0.875000000000000   1.0000000
N2   N   0.722228293829570   0.277788508717726   0.875000000000000   1.0000000
N2   N   0.054691795225807   0.775984397499254   0.375000000000000   1.0000000
N2   N   0.388359370947194   0.778205781516376   0.375000000000000   1.0000000
N2   N   0.226796421560441   0.274252099870635   0.375000000000000   1.0000000
N2   N   0.724016560879874   0.780075256948412   0.375000000000000   1.0000000
N2   N   0.547455678310194   0.274252099870635   0.375000000000000   1.0000000
N2   N   0.888392791533253   0.276785583066515   0.375000000000000   1.0000000
N2   N   0.055561193780231   0.444459873919046   0.875000000000000   1.0000000
N2   N   0.222227974703999   0.944455949407996   0.875000000000000   1.0000000
N2   N   0.555558855682639   0.944454335792856   0.875000000000000   1.0000000
N2   N   0.388892885377944   0.444454432301192   0.875000000000000   1.0000000
N2   N   0.888895480110218   0.944454335792856   0.875000000000000   1.0000000
N2   N   0.055912338794956   0.943698705847901   0.375000000000000   1.0000000
N2   N   0.722230629065810   0.444456338869982   0.875000000000000   1.0000000
N2   N   0.387786367052946   0.943698705847901   0.375000000000000   1.0000000
N2   N   0.221245440551133   0.442706715166851   0.375000000000000   1.0000000
N2   N   0.221691914351126   0.609778411549108   0.375000000000000   1.0000000
N2   N   0.722766543524877   0.945533087049754   0.375000000000000   1.0000000
N2   N   0.888028696111341   0.442925642689870   0.375000000000000   1.0000000
N2   N   0.055562049774874   0.611124099549747   0.875000000000000   1.0000000
N2   N   0.222222880466343   0.111115807000829   0.875000000000000   1.0000000
N2   N   0.722230599948332   0.611120966368807   0.875000000000000   1.0000000
N2   N   0.555558578694985   0.111117381377637   0.875000000000000   1.0000000
N2   N   0.888894462634818   0.111119135768508   0.875000000000000   1.0000000
B2   B   0.111478552180046   0.054585793278816   0.375000000000000   1.0000000
B2   B   0.614058205201931   0.562051567759383   0.375000000000000   1.0000000
B2   B   0.443107241098771   0.054585793278816   0.375000000000000   1.0000000
B2   B   0.943538081509219   0.554052843107036   0.375000000000000   1.0000000
B2   B   0.778125894142504   0.056251788285008   0.375000000000000   1.0000000
B2   B   0.111114552284204   0.722229104568400   0.875000000000000   1.0000000
B2   B   0.444444838281892   0.722213063800237   0.875000000000000   1.0000000
B2   B   0.277795631142252   0.222250280790679   0.875000000000000   1.0000000
B2   B   0.777768225518344   0.722213063800237   0.875000000000000   1.0000000
B2   B   0.611114349705449   0.222244576032601   0.875000000000000   1.0000000
B2   B   0.944455995047568   0.222239453894665   0.875000000000000   1.0000000
B2   B   0.277198763741892   0.720964272658111   0.375000000000000   1.0000000
B2   B   0.113942539669578   0.220683501925482   0.375000000000000   1.0000000
B2   B   0.434224383396022   0.219294612297216   0.375000000000000   1.0000000
B2   B   0.613304286721253   0.726608573442499   0.375000000000000   1.0000000
B2   B   0.943765508916219   0.720964272658111   0.375000000000000   1.0000000
B2   B   0.776528135955728   0.221871823119106   0.375000000000000   1.0000000
B2   B   0.111112272688385   0.888897201828526   0.875000000000000   1.0000000
B2   B   0.444448901677661   0.888890637242643   0.875000000000000   1.0000000
B2   B   0.277807605110627   0.388914625490092   0.875000000000000   1.0000000
B2   B   0.611107020379473   0.388914625490092   0.875000000000000   1.0000000
B2   B   0.777774100475339   0.888882980206037   0.875000000000000   1.0000000
B2   B   0.944454468565106   0.388908937130214   0.875000000000000   1.0000000
B2   B   0.110642548111358   0.387552324477778   0.375000000000000   1.0000000
B2   B   0.276803935046887   0.886726266721320   0.375000000000000   1.0000000
B2   B   0.611555387383060   0.890557260241533   0.375000000000000   1.0000000
B2   B   0.945036300865139   0.889031114299182   0.375000000000000   1.0000000
B2   B   0.776909776366427   0.387552324477778   0.375000000000000   1.0000000
B2   B   0.277791918890881   0.555563247594891   0.875000000000000   1.0000000
B2   B   0.111118310748311   0.055569676380047   0.875000000000000   1.0000000
B2   B   0.611102404329917   0.555550492410677   0.875000000000000   1.0000000
B2   B   0.444451365631736   0.055569676380047   0.875000000000000   1.0000000
B2   B   0.944447254913499   0.555568526996434   0.875000000000000   1.0000000
B2   B   0.110514761597818   0.554052843107036   0.375000000000000   1.0000000
B2   B   0.777780607874237   0.055561215748472   0.875000000000000   1.0000000
B2   B   0.275674359228459   0.051348718456918   0.375000000000000   1.0000000
B2   B   0.447993362557450   0.562051567759383   0.375000000000000   1.0000000
B2   B   0.776900236846973   0.554595789015932   0.375000000000000   1.0000000
B2   B   0.610525692872680   0.055735485873591   0.375000000000000   1.0000000
B2   B   0.444448088080759   0.555550492410677   0.875000000000000   1.0000000
B2   B   0.945209793000910   0.055735485873591   0.375000000000000   1.0000000
B2   B   0.277784950803542   0.722225895430252   0.875000000000000   1.0000000
B2   B   0.111130226327159   0.222244576032601   0.875000000000000   1.0000000
B2   B   0.444454649648428   0.222250280790679   0.875000000000000   1.0000000
B2   B   0.611103781272331   0.722207562544654   0.875000000000000   1.0000000
B2   B   0.944440944626709   0.722225895430252   0.875000000000000   1.0000000
B2   B   0.777783458847097   0.222239453894665   0.875000000000000   1.0000000
B2   B   0.110206559092696   0.720413118185385   0.375000000000000   1.0000000
B2   B   0.444668447803322   0.723932908515747   0.375000000000000   1.0000000
B2   B   0.285070228901193   0.219294612297216   0.375000000000000   1.0000000
B2   B   0.779264460712425   0.723932908515747   0.375000000000000   1.0000000
B2   B   0.606740962255909   0.220683501925482   0.375000000000000   1.0000000
B2   B   0.945343687163379   0.221871823119106   0.375000000000000   1.0000000
B2   B   0.111130253196643   0.388909625701018   0.875000000000000   1.0000000
B2   B   0.277784929140148   0.888897201828526   0.875000000000000   1.0000000
B2   B   0.611108879730705   0.888882980206037   0.875000000000000   1.0000000
B2   B   0.444459387390824   0.388918774781647   0.875000000000000   1.0000000
B2   B   0.944441735564980   0.888890637242643   0.875000000000000   1.0000000
B2   B   0.109922331674439   0.886726266721320   0.375000000000000   1.0000000
B2   B   0.777779372504383   0.388909625701018   0.875000000000000   1.0000000
B2   B   0.443994813434043   0.889031114299182   0.375000000000000   1.0000000
B2   B   0.274801424999369   0.385346935007405   0.375000000000000   1.0000000
B2   B   0.277695552168957   0.554595789015932   0.375000000000000   1.0000000
B2   B   0.610545510008044   0.385346935007405   0.375000000000000   1.0000000
B2   B   0.779001872858479   0.890557260241533   0.375000000000000   1.0000000
B2   B   0.943847062156760   0.387694124313522   0.375000000000000   1.0000000
B2   B   0.111121272082935   0.555568526996434   0.875000000000000   1.0000000
B2   B   0.277787165689948   0.055574331379898   0.875000000000000   1.0000000
B2   B   0.777771328704011   0.555563247594891   0.875000000000000   1.0000000
B2   B   0.611114052104636   0.055563875973391   0.875000000000000   1.0000000
B2   B   0.944449823868755   0.055563875973391   0.875000000000000   1.0000000
B2   B   0.055584134287571   0.111165342677402   0.125045917200831   1.0000000
B2   B   0.555539334812381   0.611078669624763   0.124542771177099   1.0000000
B2   B   0.388926528056039   0.111190216207748   0.125106909395306   1.0000000
B2   B   0.888843940041085   0.611090404845593   0.125015270010372   1.0000000
B2   B   0.722240041085188   0.111147441057739   0.125004124596224   1.0000000
B2   B   0.055537227904663   0.777762030453490   0.625000431256780   1.0000000
B2   B   0.388909751975630   0.777773888160536   0.624995148710990   1.0000000
B2   B   0.222290808437210   0.277880845594222   0.625050972664579   1.0000000
B2   B   0.722214802861940   0.777781488158672   0.625024980039745   1.0000000
B2   B   0.555590037157012   0.277880845594222   0.625050972664579   1.0000000
B2   B   0.888900415764917   0.277800831529841   0.625001636666726   1.0000000
B2   B   0.222224802548828   0.777762030453490   0.124999568743221   1.0000000
B2   B   0.055582005563261   0.277814587338106   0.125016692838817   1.0000000
B2   B   0.388989129832470   0.277978259664947   0.124789997858448   1.0000000
B2   B   0.555566685296731   0.777781488158672   0.124975019960254   1.0000000
B2   B   0.888864136184896   0.777773888160536   0.125004851289008   1.0000000
B2   B   0.722232581774846   0.277814587338106   0.125016692838817   1.0000000
B2   B   0.055557455071550   0.944467045966891   0.624979735542216   1.0000000
B2   B   0.388909590895342   0.944467045966891   0.624979735542216   1.0000000
B2   B   0.222276102077126   0.444447442065943   0.625083708943920   1.0000000
B2   B   0.555508640974334   0.444459054072160   0.625194522924832   1.0000000
B2   B   0.722234888385379   0.944469776770759   0.624992796282536   1.0000000
B2   B   0.888879978943945   0.444448087681557   0.624995758599687   1.0000000
B2   B   0.055568108737612   0.444448087681557   0.125004241400312   1.0000000
B2   B   0.222226085753923   0.944452171507848   0.125048415068374   1.0000000
B2   B   0.555572240069861   0.944468003921729   0.125006334222486   1.0000000
B2   B   0.388950413097827   0.444459054072160   0.124805477075168   1.0000000
B2   B   0.888895763851868   0.944468003921729   0.125006334222486   1.0000000
B2   B   0.722171339988817   0.444447442065943   0.124916291056080   1.0000000
B2   B   0.222246464804502   0.611090404845593   0.624984729989627   1.0000000
B2   B   0.055584134287571   0.111165342677402   0.624954082799168   1.0000000
B2   B   0.555539334812381   0.611078669624763   0.625457228822899   1.0000000
B2   B   0.388926528056039   0.111190216207748   0.624893090604694   1.0000000
B2   B   0.888843940041085   0.611090404845593   0.624984729989627   1.0000000
B2   B   0.055546481128344   0.611092962256688   0.125000710337582   1.0000000
B2   B   0.722240041085188   0.111147441057739   0.624995875403775   1.0000000
B2   B   0.222263688151702   0.111190216207748   0.125106909395306   1.0000000
B2   B   0.388939970906243   0.611081934534129   0.124821407168888   1.0000000
B2   B   0.722141963627877   0.611081934534129   0.124821407168888   1.0000000
B2   B   0.555581208389831   0.111165342677402   0.125045917200831   1.0000000
B2   B   0.388939970906243   0.611081934534129   0.625178592831111   1.0000000
B2   B   0.888907399972546   0.111147441057739   0.125004124596224   1.0000000
B2   B   0.222224802548828   0.777762030453490   0.625000431256780   1.0000000
B2   B   0.055582005563261   0.277814587338106   0.624983307161184   1.0000000
B2   B   0.388989129832470   0.277978259664947   0.625210002141552   1.0000000
B2   B   0.555566685296731   0.777781488158672   0.625024980039745   1.0000000
B2   B   0.888864136184896   0.777773888160536   0.624995148710990   1.0000000
B2   B   0.722232581774846   0.277814587338106   0.624983307161184   1.0000000
B2   B   0.055537227904663   0.777762030453490   0.124999568743221   1.0000000
B2   B   0.388909751975630   0.777773888160536   0.125004851289008   1.0000000
B2   B   0.222290808437210   0.277880845594222   0.124949027335420   1.0000000
B2   B   0.722214802861940   0.777781488158672   0.124975019960254   1.0000000
B2   B   0.555590037157012   0.277880845594222   0.124949027335420   1.0000000
B2   B   0.888900415764917   0.277800831529841   0.124998363333274   1.0000000
B2   B   0.055568108737612   0.444448087681557   0.624995758599687   1.0000000
B2   B   0.222226085753923   0.944452171507848   0.624951584931626   1.0000000
B2   B   0.555572240069861   0.944468003921729   0.624993665777514   1.0000000
B2   B   0.388950413097827   0.444459054072160   0.625194522924832   1.0000000
B2   B   0.888895763851868   0.944468003921729   0.624993665777514   1.0000000
B2   B   0.055557455071550   0.944467045966891   0.125020264457785   1.0000000
B2   B   0.722171339988817   0.444447442065943   0.625083708943920   1.0000000
B2   B   0.388909590895342   0.944467045966891   0.125020264457785   1.0000000
B2   B   0.222276102077126   0.444447442065943   0.124916291056080   1.0000000
B2   B   0.222246464804502   0.611090404845593   0.125015270010372   1.0000000
B2   B   0.555508640974334   0.444459054072160   0.124805477075168   1.0000000
B2   B   0.722234888385379   0.944469776770759   0.125007203717464   1.0000000
B2   B   0.888879978943945   0.444448087681557   0.125004241400312   1.0000000
B2   B   0.055546481128344   0.611092962256688   0.624999289662418   1.0000000
B2   B   0.222263688151702   0.111190216207748   0.624893090604694   1.0000000
B2   B   0.722141963627877   0.611081934534129   0.625178592831111   1.0000000
B2   B   0.555581208389831   0.111165342677402   0.624954082799168   1.0000000
B2   B   0.888907399972546   0.111147441057739   0.624995875403775   1.0000000


