data_1
_audit_creation_method   'vasp2cif'
_cell_length_a    17.52789999999977
_cell_length_b    17.52789999999977
_cell_length_c    15.0
_cell_angle_alpha    90.0
_cell_angle_beta    90.0
_cell_angle_gamma    119.99999999999916

_symmetry_space_group_name_H-M    'P 1'
loop_
_atom_site_label
_atom_site_type_symbol
_atom_site_fract_x
_atom_site_fract_y
_atom_site_fract_z
_atom_site_occupancy
B2   B   0.905573021301012   0.953999104795796   0.111028804028753   1.0000000
B2   B   0.903886086046638   0.096115935149351   0.111047164483639   1.0000000
B2   B   0.903313395748204   0.238859689737891   0.111031814486548   1.0000000
B2   B   0.903424494929730   0.381651841715756   0.110962142894083   1.0000000
B2   B   0.904826209995332   0.524589538595876   0.110936285677875   1.0000000
B2   B   0.907024654569529   0.668125405816464   0.111040634585652   1.0000000
B2   B   0.907949039435239   0.812350724839631   0.111022200619701   1.0000000
B2   B   0.047794010043142   0.952208011152862   0.111016982648989   1.0000000
B2   B   0.046002916400207   0.094428999894985   0.111028804028753   1.0000000
B2   B   0.045576052963262   0.237718463043243   0.111033720813830   1.0000000
B2   B   0.046151586464016   0.380895499104452   0.111005737915662   1.0000000
B2   B   0.047607887597141   0.523748367276543   0.110995934676285   1.0000000
B2   B   0.048753482142056   0.666680533829297   0.111052767271586   1.0000000
B2   B   0.048881174359404   0.809694483754926   0.111038703888730   1.0000000
B2   B   0.190307537441075   0.951120846836595   0.111038703888730   1.0000000
B2   B   0.187651296356377   0.092052981760757   0.111022200619701   1.0000000
B2   B   0.186383180949545   0.234807431043672   0.110965274835704   1.0000000
B2   B   0.187991386655288   0.379544661613405   0.111032459509703   1.0000000
B2   B   0.190676150996447   0.522873838987656   0.111102628371793   1.0000000
B2   B   0.191532650706501   0.665893927813995   0.111089893709041   1.0000000
B2   B   0.191251329384804   0.808750691811197   0.111027424686658   1.0000000
B2   B   0.333321487367693   0.951248539053951   0.111052767271586   1.0000000
B2   B   0.331876615380536   0.092977366626474   0.111040634585652   1.0000000
B2   B   0.326685531478938   0.230926683705743   0.110897704326152   1.0000000
B2   B   0.326378854723062   0.375159801087497   0.110908522589094   1.0000000
B2   B   0.334323469192430   0.521096838845959   0.111091221574718   1.0000000
B2   B   0.334934306156371   0.665067715040628   0.111168085559307   1.0000000
B2   B   0.334108093383005   0.808469370489514   0.111089893709041   1.0000000
B2   B   0.476253653920458   0.952394133598860   0.110995934676285   1.0000000
B2   B   0.475412482601123   0.095175811200661   0.110936285677875   1.0000000
B2   B   0.473740479872506   0.237328130094413   0.110902073777590   1.0000000
B2   B   0.462813560552642   0.371284366994522   0.111261876081838   1.0000000
B2   B   0.478905182351036   0.665678552004570   0.111091221574718   1.0000000
B2   B   0.477128182209343   0.809325870199549   0.111102628371793   1.0000000
B2   B   0.619106522091558   0.953850434731979   0.111005737915662   1.0000000
B2   B   0.618350179480249   0.096577526266264   0.110962142894083   1.0000000
B2   B   0.617546725287519   0.239748311565775   0.111033067629574   1.0000000
B2   B   0.616282700605807   0.383719320590196   0.110975306896223   1.0000000
B2   B   0.628717654201479   0.537188460644362   0.111261876081838   1.0000000
B2   B   0.624842220108507   0.673623166473938   0.110908522589094   1.0000000
B2   B   0.620457359582594   0.812010634540717   0.111032459509703   1.0000000
B2   B   0.762283558152769   0.954425968232739   0.111033720813830   1.0000000
B2   B   0.761142331458111   0.096688625447803   0.111031814486548   1.0000000
B2   B   0.760553846819743   0.239448174376266   0.111030645362628   1.0000000
B2   B   0.760253709630235   0.382455295908486   0.111033067629574   1.0000000
B2   B   0.762673891101588   0.526261541324489   0.110902073777590   1.0000000
B2   B   0.769075337490258   0.673316489718064   0.110897704326152   1.0000000
B2   B   0.765194590152329   0.813618840246459   0.110965274835704   1.0000000
N2   N   0.953627567405801   0.906555866543989   0.110994590552146   1.0000000
N2   N   0.951571252145936   0.048430149772071   0.111021272562071   1.0000000
N2   N   0.950715164671948   0.190987922947752   0.111029400975562   1.0000000
N2   N   0.950883687518847   0.333897754280896   0.110943633478948   1.0000000
N2   N   0.952106343501247   0.476744117326549   0.110897235201045   1.0000000
N2   N   0.953640347052362   0.619729381259346   0.111008635673032   1.0000000
N2   N   0.954246491610616   0.763208477650001   0.111037302588469   1.0000000
N2   N   0.095531282053990   0.904470119864005   0.110988497135166   1.0000000
N2   N   0.093445535374010   0.046373834512206   0.110994590552146   1.0000000
N2   N   0.092081403921922   0.188910890406834   0.111006615288225   1.0000000
N2   N   0.092910778363960   0.332707064374671   0.111018496705249   1.0000000
N2   N   0.094939845049613   0.475992929757092   0.111015791129652   1.0000000
N2   N   0.096091766825831   0.618874856941127   0.111030405053825   1.0000000
N2   N   0.096225450679572   0.761736366347011   0.111008085469617   1.0000000
N2   N   0.238265035570991   0.903775951238424   0.111008085469617   1.0000000
N2   N   0.236792924268007   0.045754910307390   0.111037302588469   1.0000000
N2   N   0.232828335743575   0.185757673801892   0.110949864650623   1.0000000
N2   N   0.232353930392645   0.329117240230812   0.110929951474862   1.0000000
N2   N   0.237573073641034   0.474759208702863   0.111082859401458   1.0000000
N2   N   0.239126277565142   0.618211015130430   0.111124124702913   1.0000000
N2   N   0.238883675710665   0.761117726207341   0.111061139610131   1.0000000
N2   N   0.381126544976869   0.903909635092169   0.111030405053825   1.0000000
N2   N   0.380272020658660   0.046361054865645   0.111008635673032   1.0000000
N2   N   0.378279789737165   0.187556625198921   0.110951121899593   1.0000000
N2   N   0.370673772698487   0.323583754016273   0.110797629282548   1.0000000
N2   N   0.376332603721537   0.468576417577556   0.110930086364303   1.0000000
N2   N   0.382714603151692   0.617286798766304   0.111144869924693   1.0000000
N2   N   0.381790386787566   0.760875124352867   0.111124124702913   1.0000000
N2   N   0.524008472159905   0.905061556868382   0.111015791129652   1.0000000
N2   N   0.523257284590447   0.047895058416759   0.110897235201045   1.0000000
N2   N   0.522296967817364   0.190673127837885   0.110865470443368   1.0000000
N2   N   0.519829737715124   0.333318377178681   0.110954801056843   1.0000000
N2   N   0.531424984339442   0.623668798196458   0.110930086364303   1.0000000
N2   N   0.525242193214135   0.762428328276973   0.111082859401458   1.0000000
N2   N   0.667294337542325   0.907090623554043   0.111018496705249   1.0000000
N2   N   0.666103647636099   0.049117714399161   0.110943633478948   1.0000000
N2   N   0.665360872107089   0.192036506300108   0.111028055598418   1.0000000
N2   N   0.664409937863410   0.335591464053585   0.110986519501332   1.0000000
N2   N   0.666683024738309   0.480171664201874   0.110954801056843   1.0000000
N2   N   0.676417647900722   0.629327629219518   0.110797629282548   1.0000000
N2   N   0.670884161686181   0.767647471525360   0.110929951474862   1.0000000
N2   N   0.811090511511165   0.907919997996078   0.111006615288225   1.0000000
N2   N   0.809013478970249   0.049286237246055   0.111029400975562   1.0000000
N2   N   0.808230599261809   0.191770802656190   0.110989710151431   1.0000000
N2   N   0.807964895617890   0.334640529809907   0.111028055598418   1.0000000
N2   N   0.809328274080112   0.477704434099632   0.110865470443368   1.0000000
N2   N   0.812444776719079   0.621721612180835   0.110951121899593   1.0000000
N2   N   0.814243728116106   0.767173066174430   0.110949864650623   1.0000000
As2   As   0.500793872894526   0.499208148302474   0.112411282646492   1.0000000


