data_1
_audit_creation_method   'vasp2cif'
_cell_length_a    17.52789999999977
_cell_length_b    17.52789999999977
_cell_length_c    15.0
_cell_angle_alpha    90.0
_cell_angle_beta    90.0
_cell_angle_gamma    119.99999999999916

_symmetry_space_group_name_H-M    'P 1'
loop_
_atom_site_label
_atom_site_type_symbol
_atom_site_fract_x
_atom_site_fract_y
_atom_site_fract_z
_atom_site_occupancy
B2   B   0.905795619218723   0.952958262728615   0.108332161005813   1.0000000
B2   B   0.904640687339019   0.095374397950768   0.108842397126839   1.0000000
B2   B   0.904250084905438   0.238207705191916   0.110398817650047   1.0000000
B2   B   0.904276541166352   0.381044693400904   0.111892652299442   1.0000000
B2   B   0.904913351868422   0.523837973485192   0.112186769607187   1.0000000
B2   B   0.906440195798326   0.666983077714753   0.110897271446866   1.0000000
B2   B   0.907105097350964   0.810650473827364   0.109138510762436   1.0000000
B2   B   0.048239655557722   0.951746988244789   0.108481800564301   1.0000000
B2   B   0.047036222082596   0.094195086143981   0.108342959823304   1.0000000
B2   B   0.046752511426180   0.237358153193136   0.109501626605533   1.0000000
B2   B   0.047171185584683   0.380457993384896   0.111225487495289   1.0000000
B2   B   0.048156086493554   0.523249933592152   0.111818994152759   1.0000000
B2   B   0.048838428201629   0.666088865876023   0.111024179943852   1.0000000
B2   B   0.048902352824583   0.809046410769355   0.109559674274918   1.0000000
B2   B   0.190950072271417   0.951085861514013   0.108944599921613   1.0000000
B2   B   0.189339145887255   0.092868560563637   0.108561381922814   1.0000000
B2   B   0.188179266904526   0.235303094571658   0.109241477634036   1.0000000
B2   B   0.189325737165300   0.379391610900446   0.111355794803133   1.0000000
B2   B   0.191499907076015   0.522559453909560   0.112434392544728   1.0000000
B2   B   0.191853466248935   0.665502262031410   0.111613295705571   1.0000000
B2   B   0.191582367648857   0.808422055499517   0.110074318491158   1.0000000
B2   B   0.333926176958475   0.951169957144094   0.109616435505287   1.0000000
B2   B   0.333013146237087   0.093552220496203   0.109433121378505   1.0000000
B2   B   0.329979929919308   0.233555077623247   0.109981397529421   1.0000000
B2   B   0.328676092706619   0.376027213964367   0.112430992513432   1.0000000
B2   B   0.335175857641795   0.521038732009023   0.114381652861439   1.0000000
B2   B   0.335236573585574   0.664772686908068   0.112960882543569   1.0000000
B2   B   0.334500227861034   0.808144816855979   0.110857628271355   1.0000000
B2   B   0.476757389105615   0.951850049667075   0.110040142796452   1.0000000
B2   B   0.476181361131751   0.095106917087574   0.110334410278105   1.0000000
B2   B   0.475135792623981   0.238113750606218   0.111872044199001   1.0000000
B2   B   0.468914585812969   0.376353187429232   0.113926168871812   1.0000000
B2   B   0.478969495440354   0.664837052024496   0.113969560771851   1.0000000
B2   B   0.477442031918458   0.808499213375879   0.111252335885440   1.0000000
B2   B   0.619553436604806   0.952845047416360   0.109749934411165   1.0000000
B2   B   0.618971215247026   0.095739734792570   0.110430467029489   1.0000000
B2   B   0.618426108464236   0.238986623795422   0.112181327225423   1.0000000
B2   B   0.617492215099638   0.382495369575676   0.114104185647855   1.0000000
B2   B   0.623629058197837   0.531067858707258   0.114187816339382   1.0000000
B2   B   0.623959551762655   0.671318876727694   0.112277231140543   1.0000000
B2   B   0.620611384651556   0.810678155992580   0.110474112608437   1.0000000
B2   B   0.762649018287369   0.953262730006573   0.108813415646781   1.0000000
B2   B   0.761817301914287   0.095778072224954   0.109761473484040   1.0000000
B2   B   0.761367034558733   0.238646411480811   0.111510427489573   1.0000000
B2   B   0.761027306718813   0.381589255983418   0.113029261420465   1.0000000
B2   B   0.761878414479006   0.524854006583468   0.113045141391155   1.0000000
B2   B   0.766427312069767   0.670003454933749   0.110695071959856   1.0000000
B2   B   0.764686058532643   0.811812175490855   0.109156808857156   1.0000000
N2   N   0.953586087450028   0.905296286784607   0.108493792315119   1.0000000
N2   N   0.952326850101526   0.047669045789969   0.108322913183676   1.0000000
N2   N   0.951747916007600   0.190398413751705   0.109430163435079   1.0000000
N2   N   0.951856066558898   0.333346606978403   0.111137504401393   1.0000000
N2   N   0.952539911143158   0.476161233177098   0.112017111068207   1.0000000
N2   N   0.953498031305150   0.618958613774929   0.111420597477025   1.0000000
N2   N   0.953917390151046   0.762108256201623   0.109733190605799   1.0000000
N2   N   0.095948688973384   0.904042336512273   0.108864065276403   1.0000000
N2   N   0.094690548546435   0.046399500617071   0.108270758837714   1.0000000
N2   N   0.093648743248402   0.188930642026736   0.108701377795904   1.0000000
N2   N   0.094274744960608   0.332468337590930   0.110557583262516   1.0000000
N2   N   0.095813375973196   0.475589557540958   0.111846087008199   1.0000000
N2   N   0.096391881979353   0.618378449957931   0.111489034981864   1.0000000
N2   N   0.096397361302626   0.761219426503087   0.110157170105617   1.0000000
N2   N   0.238789122011588   0.903603403232972   0.109394895982746   1.0000000
N2   N   0.237886560957662   0.046068156362454   0.108719076606720   1.0000000
N2   N   0.235571718723786   0.187331514308970   0.108863570536445   1.0000000
N2   N   0.234709743904200   0.329909384849911   0.110618340034905   1.0000000
N2   N   0.239012678047957   0.474619874783543   0.112734522712455   1.0000000
N2   N   0.239637578223236   0.617793575360615   0.112514865045054   1.0000000
N2   N   0.239261118715128   0.760743571223908   0.110824389663211   1.0000000
N2   N   0.381628713001791   0.903609927851693   0.110031508556202   1.0000000
N2   N   0.381059070338459   0.046509817049991   0.109606609312541   1.0000000
N2   N   0.379924744202324   0.188645761757266   0.110227132027700   1.0000000
N2   N   0.375402835436624   0.327589700244780   0.111335298984707   1.0000000
N2   N   0.379602877218580   0.469966726854928   0.115505100974626   1.0000000
N2   N   0.383183979743299   0.616825282542082   0.114389230616317   1.0000000
N2   N   0.382211557857701   0.760367561653897   0.111793363204862   1.0000000
N2   N   0.524419080510503   0.904191214013313   0.110188772947978   1.0000000
N2   N   0.523852603297025   0.047472279636403   0.110092905168600   1.0000000
N2   N   0.523209982894349   0.190834292324768   0.111453081873239   1.0000000
N2   N   0.521833124433716   0.334504111779174   0.113802571141277   1.0000000
N2   N   0.530021493349432   0.620396954188614   0.115274928938661   1.0000000
N2   N   0.525381279883039   0.760990600094897   0.111810142159966   1.0000000
N2   N   0.667538112857995   0.905732707422025   0.109421899265638   1.0000000
N2   N   0.666675385587549   0.048166562517295   0.109805132589944   1.0000000
N2   N   0.666118258448031   0.191208696375242   0.111402523799705   1.0000000
N2   N   0.665405742018196   0.334598735062597   0.113372831209389   1.0000000
N2   N   0.665480532304189   0.478150708838573   0.114336193932491   1.0000000
N2   N   0.672392272574046   0.624582010685040   0.111599064799641   1.0000000
N2   N   0.670079798165502   0.765285170622304   0.110198476875754   1.0000000
N2   N   0.811064578121492   0.906349677745644   0.108445378179443   1.0000000
N2   N   0.809616609489526   0.048269811586584   0.108924933327160   1.0000000
N2   N   0.809055070466949   0.190970421433086   0.110536054089448   1.0000000
N2   N   0.808806480087742   0.333894263056769   0.112296397741886   1.0000000
N2   N   0.809179897770802   0.476804490541274   0.112950106384025   1.0000000
N2   N   0.811345037597678   0.620067993494590   0.111538923948346   1.0000000
N2   N   0.812649231497450   0.764414029187426   0.109338109291727   1.0000000
Si2   Si   0.493596125919148   0.506405798191153   0.120806152804045   1.0000000


