data_1
_audit_creation_method   'vasp2cif'
_cell_length_a    14.93631414619966
_cell_length_b    14.936314146199727
_cell_length_c    13.341276283792837
_cell_angle_alpha    90.0
_cell_angle_beta    90.0
_cell_angle_gamma    119.99999999999984

_symmetry_space_group_name_H-M    'P 1'
loop_
_atom_site_label
_atom_site_type_symbol
_atom_site_fract_x
_atom_site_fract_y
_atom_site_fract_z
_atom_site_occupancy
Ge2   Ge   0.555555555555557   0.444444444444443   0.375000000000000   1.0000000
N2   N   0.111112680823569   0.055539299148863   0.125227479786873   1.0000000
N2   N   0.611130838703902   0.555595010741134   0.125489553813509   1.0000000
N2   N   0.444427371279532   0.055535104262773   0.125327731829457   1.0000000
N2   N   0.944464895737228   0.555572628720468   0.125327731829457   1.0000000
N2   N   0.777769469676179   0.055551401504757   0.125166916765120   1.0000000
N2   N   0.111123171118068   0.722228252225698   0.624800878383971   1.0000000
N2   N   0.444427371279532   0.722225600350095   0.624672268170544   1.0000000
N2   N   0.277770389436362   0.222205744650601   0.624547941146181   1.0000000
N2   N   0.777794255349399   0.722229610563638   0.624547941146181   1.0000000
N2   N   0.611102021880911   0.222205744650601   0.624547941146181   1.0000000
N2   N   0.944448598495243   0.222230530323821   0.624833083234880   1.0000000
N2   N   0.277771747774302   0.722228252225698   0.125199121616029   1.0000000
N2   N   0.111112593171597   0.222222963252463   0.125224113066816   1.0000000
N2   N   0.444439425399422   0.222212184132179   0.125601144758736   1.0000000
N2   N   0.611102021880911   0.722229610563638   0.125452058853819   1.0000000
N2   N   0.944464895737228   0.722225600350095   0.125327731829457   1.0000000
N2   N   0.777777036747537   0.222222963252463   0.125224113066816   1.0000000
N2   N   0.111120344367555   0.888879655632445   0.624794162690458   1.0000000
N2   N   0.444425977931560   0.888879655632445   0.624794162690458   1.0000000
N2   N   0.277770389436362   0.388897978119089   0.624547941146181   1.0000000
N2   N   0.611130838703902   0.388869161296097   0.624510446186491   1.0000000
N2   N   0.777777036747537   0.888887406828404   0.624775886933184   1.0000000
N2   N   0.944460700851137   0.388906715008036   0.624772520213127   1.0000000
N2   N   0.111112680823569   0.388906715008036   0.125227479786873   1.0000000
N2   N   0.277771747774302   0.888876828881933   0.125199121616029   1.0000000
N2   N   0.611093284991965   0.888887319176430   0.125227479786873   1.0000000
N2   N   0.444404989258866   0.388869161296097   0.125489553813509   1.0000000
N2   N   0.944460700851137   0.888887319176430   0.125227479786873   1.0000000
N2   N   0.777794255349399   0.388897978119089   0.125452058853819   1.0000000
N2   N   0.277774399649905   0.555572628720468   0.624672268170544   1.0000000
N2   N   0.111112680823569   0.055539299148863   0.624772520213127   1.0000000
N2   N   0.611130838703902   0.555595010741134   0.624510446186491   1.0000000
N2   N   0.444427371279532   0.055535104262773   0.624672268170544   1.0000000
N2   N   0.944464895737228   0.555572628720468   0.624672268170544   1.0000000
N2   N   0.111120344367555   0.555574022068440   0.125205837309542   1.0000000
N2   N   0.777769469676179   0.055551401504757   0.624833083234880   1.0000000
N2   N   0.277774399649905   0.055535104262773   0.125327731829457   1.0000000
N2   N   0.444439425399422   0.555560574600578   0.125601144758736   1.0000000
N2   N   0.777787815867820   0.555560574600578   0.125601144758736   1.0000000
N2   N   0.611093284991965   0.055539299148863   0.125227479786873   1.0000000
N2   N   0.444439425399422   0.555560574600578   0.624398855241263   1.0000000
N2   N   0.944448598495243   0.055551401504757   0.125166916765120   1.0000000
N2   N   0.277771747774302   0.722228252225698   0.624800878383971   1.0000000
N2   N   0.111112593171597   0.222222963252463   0.624775886933184   1.0000000
N2   N   0.444439425399422   0.222212184132179   0.624398855241263   1.0000000
N2   N   0.611102021880911   0.722229610563638   0.624547941146181   1.0000000
N2   N   0.944464895737228   0.722225600350095   0.624672268170544   1.0000000
N2   N   0.777777036747537   0.222222963252463   0.624775886933184   1.0000000
N2   N   0.111123171118068   0.722228252225698   0.125199121616029   1.0000000
N2   N   0.444427371279532   0.722225600350095   0.125327731829457   1.0000000
N2   N   0.277770389436362   0.222205744650601   0.125452058853819   1.0000000
N2   N   0.777794255349399   0.722229610563638   0.125452058853819   1.0000000
N2   N   0.611102021880911   0.222205744650601   0.125452058853819   1.0000000
N2   N   0.944448598495243   0.222230530323821   0.125166916765120   1.0000000
N2   N   0.111112680823569   0.388906715008036   0.624772520213127   1.0000000
N2   N   0.277771747774302   0.888876828881933   0.624800878383971   1.0000000
N2   N   0.611093284991965   0.888887319176430   0.624772520213127   1.0000000
N2   N   0.444404989258866   0.388869161296097   0.624510446186491   1.0000000
N2   N   0.944460700851137   0.888887319176430   0.624772520213127   1.0000000
N2   N   0.111120344367555   0.888879655632445   0.125205837309542   1.0000000
N2   N   0.777794255349399   0.388897978119089   0.624547941146181   1.0000000
N2   N   0.444425977931560   0.888879655632445   0.125205837309542   1.0000000
N2   N   0.277770389436362   0.388897978119089   0.125452058853819   1.0000000
N2   N   0.277774399649905   0.555572628720468   0.125327731829457   1.0000000
N2   N   0.611130838703902   0.388869161296097   0.125489553813509   1.0000000
N2   N   0.777777036747537   0.888887406828404   0.125224113066816   1.0000000
N2   N   0.944460700851137   0.388906715008036   0.125227479786873   1.0000000
N2   N   0.111120344367555   0.555574022068440   0.624794162690458   1.0000000
N2   N   0.277774399649905   0.055535104262773   0.624672268170544   1.0000000
N2   N   0.777787815867820   0.555560574600578   0.624398855241263   1.0000000
N2   N   0.611093284991965   0.055539299148863   0.624772520213127   1.0000000
N2   N   0.944448598495243   0.055551401504757   0.624833083234880   1.0000000
N2   N   0.054585702034570   0.110500365313985   0.375000000000000   1.0000000
N2   N   0.554508651309928   0.618682767058773   0.375000000000000   1.0000000
N2   N   0.387530822388448   0.108394978110238   0.375000000000000   1.0000000
N2   N   0.891605021889761   0.612469177611552   0.375000000000000   1.0000000
N2   N   0.722581329946079   0.110500365313985   0.375000000000000   1.0000000
N2   N   0.055549540862123   0.777778776302385   0.875000000000000   1.0000000
N2   N   0.388895902106925   0.777778776302385   0.875000000000000   1.0000000
N2   N   0.222219570502959   0.277776451918147   0.875000000000000   1.0000000
N2   N   0.722223548081853   0.777780429497042   0.875000000000000   1.0000000
N2   N   0.555557230859067   0.277780326900256   0.875000000000000   1.0000000
N2   N   0.888889217854775   0.277775120988319   0.875000000000000   1.0000000
N2   N   0.222222222222221   0.777777777777779   0.375000000000000   1.0000000
N2   N   0.054585702034570   0.277418670053921   0.375000000000000   1.0000000
N2   N   0.381317232941227   0.269159217584491   0.375000000000000   1.0000000
N2   N   0.555084344636372   0.780985034133441   0.375000000000000   1.0000000
N2   N   0.892567356163733   0.780985034133441   0.375000000000000   1.0000000
N2   N   0.723719216093259   0.276280783906741   0.375000000000000   1.0000000
N2   N   0.055552017865078   0.944447982134921   0.875000000000000   1.0000000
N2   N   0.388895902106925   0.944450459137877   0.875000000000000   1.0000000
N2   N   0.222219503713081   0.444438513283978   0.875000000000000   1.0000000
N2   N   0.555555555555557   0.444444444444443   0.875000000000000   1.0000000
N2   N   0.722224879011680   0.944447430199792   0.875000000000000   1.0000000
N2   N   0.888885676237562   0.444438513283978   0.875000000000000   1.0000000
N2   N   0.055704730400917   0.444742794135163   0.375000000000000   1.0000000
N2   N   0.221797697487022   0.943454981192813   0.375000000000000   1.0000000
N2   N   0.555257205864838   0.944295269599083   0.375000000000000   1.0000000
N2   N   0.381317232941227   0.445491348690072   0.375000000000000   1.0000000
N2   N   0.889499634686015   0.945414297965430   0.375000000000000   1.0000000
N2   N   0.730840782415509   0.445491348690072   0.375000000000000   1.0000000
N2   N   0.222221223697616   0.611104097893075   0.875000000000000   1.0000000
N2   N   0.055552569800208   0.111110782145224   0.875000000000000   1.0000000
N2   N   0.555557230859067   0.611110237292146   0.875000000000000   1.0000000
N2   N   0.388892821732086   0.111118976797515   0.875000000000000   1.0000000
N2   N   0.888881023202485   0.611107178267914   0.875000000000000   1.0000000
N2   N   0.056545018807187   0.611676049627544   0.375000000000000   1.0000000
N2   N   0.722224879011680   0.111110782145224   0.875000000000000   1.0000000
N2   N   0.219014965866559   0.107432643836266   0.375000000000000   1.0000000
N2   N   0.387530822388448   0.612469177611552   0.375000000000000   1.0000000
N2   N   0.730840782415509   0.618682767058773   0.375000000000000   1.0000000
N2   N   0.555084344636372   0.107432643836266   0.375000000000000   1.0000000
N2   N   0.388892821732086   0.611107178267914   0.875000000000000   1.0000000
N2   N   0.888888888888886   0.111111111111114   0.375000000000000   1.0000000
N2   N   0.222222222222221   0.777777777777779   0.875000000000000   1.0000000
N2   N   0.055552569800208   0.277775120988319   0.875000000000000   1.0000000
N2   N   0.388889762707854   0.277780326900256   0.875000000000000   1.0000000
N2   N   0.555561486716022   0.777780496286919   0.875000000000000   1.0000000
N2   N   0.888885676237562   0.777780496286919   0.875000000000000   1.0000000
N2   N   0.722223548081853   0.277776451918147   0.875000000000000   1.0000000
N2   N   0.056545018807187   0.778202302512978   0.375000000000000   1.0000000
N2   N   0.388323950372456   0.778202302512978   0.375000000000000   1.0000000
N2   N   0.219228234480146   0.276280783906741   0.375000000000000   1.0000000
N2   N   0.723719216093259   0.780771765519854   0.375000000000000   1.0000000
N2   N   0.554508651309928   0.269159217584491   0.375000000000000   1.0000000
N2   N   0.889499634686015   0.277418670053921   0.375000000000000   1.0000000
N2   N   0.055552017865078   0.444437369063486   0.875000000000000   1.0000000
N2   N   0.222221223697616   0.944450459137877   0.875000000000000   1.0000000
N2   N   0.555562630936514   0.944447982134921   0.875000000000000   1.0000000
N2   N   0.388889762707854   0.444442769140933   0.875000000000000   1.0000000
N2   N   0.888889217854775   0.944447430199792   0.875000000000000   1.0000000
N2   N   0.055704730400917   0.944295269599083   0.375000000000000   1.0000000
N2   N   0.722219673099744   0.444442769140933   0.875000000000000   1.0000000
N2   N   0.388323950372456   0.943454981192813   0.375000000000000   1.0000000
N2   N   0.219014965866559   0.444915655363628   0.375000000000000   1.0000000
N2   N   0.221797697487022   0.611676049627544   0.375000000000000   1.0000000
N2   N   0.722581329946079   0.945414297965430   0.375000000000000   1.0000000
N2   N   0.892567356163733   0.444915655363628   0.375000000000000   1.0000000
N2   N   0.055549540862123   0.611104097893075   0.875000000000000   1.0000000
N2   N   0.222219503713081   0.111114323762439   0.875000000000000   1.0000000
N2   N   0.722219673099744   0.611110237292146   0.875000000000000   1.0000000
N2   N   0.555561486716022   0.111114323762439   0.875000000000000   1.0000000
N2   N   0.888888888888886   0.111111111111114   0.875000000000000   1.0000000
B2   B   0.108661460368629   0.053873553378366   0.375000000000000   1.0000000
B2   B   0.627965227173951   0.589263787681229   0.375000000000000   1.0000000
B2   B   0.443843015987626   0.053052241322317   0.375000000000000   1.0000000
B2   B   0.946947758677683   0.556156984012374   0.375000000000000   1.0000000
B2   B   0.778430412996675   0.055881873165005   0.375000000000000   1.0000000
B2   B   0.111122659539614   0.722227996436472   0.875000000000000   1.0000000
B2   B   0.444443139094468   0.722259727141098   0.875000000000000   1.0000000
B2   B   0.277701892212338   0.222172118208994   0.875000000000000   1.0000000
B2   B   0.777827881791006   0.722298107787662   0.875000000000000   1.0000000
B2   B   0.611136892663327   0.222172118208994   0.875000000000000   1.0000000
B2   B   0.944434968785995   0.222203270905325   0.875000000000000   1.0000000
B2   B   0.277423468623376   0.722576531376625   0.375000000000000   1.0000000
B2   B   0.108145532303755   0.220739432818542   0.375000000000000   1.0000000
B2   B   0.441645063226239   0.216623459785814   0.375000000000000   1.0000000
B2   B   0.612925397809893   0.730787141801834   0.375000000000000   1.0000000
B2   B   0.946947758677683   0.724124107998644   0.375000000000000   1.0000000
B2   B   0.779260567181458   0.220739432818542   0.375000000000000   1.0000000
B2   B   0.111106593666978   0.888893406333022   0.875000000000000   1.0000000
B2   B   0.444453479332715   0.888893406333022   0.875000000000000   1.0000000
B2   B   0.277701892212338   0.388863107336673   0.875000000000000   1.0000000
B2   B   0.611136606287294   0.388863393712705   0.875000000000000   1.0000000
B2   B   0.777808494395893   0.888950322125115   0.875000000000000   1.0000000
B2   B   0.944460754750108   0.388864554048368   0.875000000000000   1.0000000
B2   B   0.108661460368629   0.388121240323592   0.375000000000000   1.0000000
B2   B   0.277423468623376   0.888180270580080   0.375000000000000   1.0000000
B2   B   0.611878759676408   0.891338539631371   0.375000000000000   1.0000000
B2   B   0.410736212318770   0.372034772826050   0.375000000000000   1.0000000
B2   B   0.946126446621634   0.891338539631371   0.375000000000000   1.0000000
B2   B   0.784528410658613   0.387074602190107   0.375000000000000   1.0000000
B2   B   0.277740272858902   0.555556860905531   0.875000000000000   1.0000000
B2   B   0.111070465964932   0.055539245249893   0.875000000000000   1.0000000
B2   B   0.611136606287294   0.555606545907918   0.875000000000000   1.0000000
B2   B   0.444443139094468   0.055516745286706   0.875000000000000   1.0000000
B2   B   0.944483254713294   0.555556860905531   0.875000000000000   1.0000000
B2   B   0.111197169250319   0.555727671833967   0.375000000000000   1.0000000
B2   B   0.777796729094675   0.055565031214005   0.875000000000000   1.0000000
B2   B   0.275875892001356   0.053052241322317   0.375000000000000   1.0000000
B2   B   0.441645063226239   0.558354936773761   0.375000000000000   1.0000000
B2   B   0.783376540214186   0.558354936773761   0.375000000000000   1.0000000
B2   B   0.611878759676408   0.053873553378366   0.375000000000000   1.0000000
B2   B   0.444415405499485   0.555584594500515   0.875000000000000   1.0000000
B2   B   0.944118126834995   0.055881873165005   0.375000000000000   1.0000000
B2   B   0.277772003563529   0.722227996436472   0.875000000000000   1.0000000
B2   B   0.111049677874885   0.222191505604107   0.875000000000000   1.0000000
B2   B   0.444415405499485   0.222164144332305   0.875000000000000   1.0000000
B2   B   0.611136892663327   0.722298107787662   0.875000000000000   1.0000000
B2   B   0.944483254713294   0.722259727141098   0.875000000000000   1.0000000
B2   B   0.777808494395893   0.222191505604107   0.875000000000000   1.0000000
B2   B   0.111819729419920   0.722576531376625   0.375000000000000   1.0000000
B2   B   0.443843015987626   0.724124107998644   0.375000000000000   1.0000000
B2   B   0.269212858198166   0.215471589341387   0.375000000000000   1.0000000
B2   B   0.784528410658613   0.730787141801834   0.375000000000000   1.0000000
B2   B   0.612925397809893   0.215471589341387   0.375000000000000   1.0000000
B2   B   0.944118126834995   0.221569587003325   0.375000000000000   1.0000000
B2   B   0.111070465964932   0.388864554048368   0.875000000000000   1.0000000
B2   B   0.277772003563529   0.888877340460386   0.875000000000000   1.0000000
B2   B   0.611135445951631   0.888929534035068   0.875000000000000   1.0000000
B2   B   0.444393454092082   0.388863393712705   0.875000000000000   1.0000000
B2   B   0.944460754750108   0.888929534035068   0.875000000000000   1.0000000
B2   B   0.111197169250319   0.888802830749681   0.375000000000000   1.0000000
B2   B   0.777827881791006   0.388863107336673   0.875000000000000   1.0000000
B2   B   0.444272328166033   0.888802830749681   0.375000000000000   1.0000000
B2   B   0.269212858198166   0.387074602190107   0.375000000000000   1.0000000
B2   B   0.275875892001356   0.556156984012374   0.375000000000000   1.0000000
B2   B   0.627965227173951   0.372034772826050   0.375000000000000   1.0000000
B2   B   0.779260567181458   0.891854467696245   0.375000000000000   1.0000000
B2   B   0.946126446621634   0.388121240323592   0.375000000000000   1.0000000
B2   B   0.111106593666978   0.555546520667286   0.875000000000000   1.0000000
B2   B   0.277740272858902   0.055516745286706   0.875000000000000   1.0000000
B2   B   0.777835855667695   0.555584594500515   0.875000000000000   1.0000000
B2   B   0.611135445951631   0.055539245249893   0.875000000000000   1.0000000
B2   B   0.944434968785995   0.055565031214005   0.875000000000000   1.0000000
B2   B   0.055488623564205   0.111052835081237   0.124759200885549   1.0000000
B2   B   0.555508145307574   0.611329431364938   0.124414315658983   1.0000000
B2   B   0.388750326360912   0.110833986055167   0.124749316926415   1.0000000
B2   B   0.889166013944833   0.611249673639088   0.124749316926415   1.0000000
B2   B   0.722230878183697   0.111052835081237   0.124759200885549   1.0000000
B2   B   0.055683187225218   0.777823477702625   0.625223428718200   1.0000000
B2   B   0.388806957144071   0.777823477702625   0.625223428718200   1.0000000
B2   B   0.222025054312269   0.277679193822803   0.625339025664875   1.0000000
B2   B   0.722320806177197   0.777974945687730   0.625339025664875   1.0000000
B2   B   0.555508145307574   0.277512047275971   0.625585684341017   1.0000000
B2   B   0.888947164918762   0.277769121816303   0.625240799114451   1.0000000
B2   B   0.222222222222221   0.777777777777779   0.124781745525902   1.0000000
B2   B   0.055488623564205   0.277769121816303   0.124759200885549   1.0000000
B2   B   0.388670568635061   0.277512047275971   0.124414315658983   1.0000000
B2   B   0.555500383441768   0.777925256308004   0.124736146859962   1.0000000
B2   B   0.889091539532901   0.777925256308004   0.124736146859962   1.0000000
B2   B   0.722320806177197   0.277679193822803   0.124660974335125   1.0000000
B2   B   0.055583239505610   0.944416760494390   0.625232871062366   1.0000000
B2   B   0.388806957144071   0.944316812774782   0.625223428718200   1.0000000
B2   B   0.222074743691996   0.444499616558232   0.625263853140038   1.0000000
B2   B   0.555555555555557   0.444444444444443   0.625823296162278   1.0000000
B2   B   0.722230878183697   0.944511376435796   0.625240799114451   1.0000000
B2   B   0.889091539532901   0.444499616558232   0.625263853140038   1.0000000
B2   B   0.055583239505610   0.444499812344548   0.124767128937634   1.0000000
B2   B   0.222176522297375   0.944316812774782   0.124776571281800   1.0000000
B2   B   0.555500187655453   0.944416760494390   0.124767128937634   1.0000000
B2   B   0.388670568635061   0.444491854692426   0.124414315658983   1.0000000
B2   B   0.888947164918762   0.944511376435796   0.124759200885549   1.0000000
B2   B   0.722487952724029   0.444491854692426   0.124414315658983   1.0000000
B2   B   0.222176522297375   0.611193042855929   0.625223428718200   1.0000000
B2   B   0.055488623564205   0.111052835081237   0.625240799114451   1.0000000
B2   B   0.555508145307574   0.611329431364938   0.625585684341017   1.0000000
B2   B   0.388750326360912   0.110833986055167   0.625250683073585   1.0000000
B2   B   0.889166013944833   0.611249673639088   0.625250683073585   1.0000000
B2   B   0.055683187225218   0.611193042855929   0.124776571281800   1.0000000
B2   B   0.722230878183697   0.111052835081237   0.625240799114451   1.0000000
B2   B   0.222074743691996   0.110908460467099   0.124736146859962   1.0000000
B2   B   0.388750326360912   0.611249673639088   0.124749316926415   1.0000000
B2   B   0.722487952724029   0.611329431364938   0.124414315658983   1.0000000
B2   B   0.555500383441768   0.110908460467099   0.124736146859962   1.0000000
B2   B   0.388750326360912   0.611249673639088   0.625250683073585   1.0000000
B2   B   0.888888888888886   0.111111111111114   0.124781839757933   1.0000000
B2   B   0.222222222222221   0.777777777777779   0.625218254474098   1.0000000
B2   B   0.055488623564205   0.277769121816303   0.625240799114451   1.0000000
B2   B   0.388670568635061   0.277512047275971   0.625585684341017   1.0000000
B2   B   0.555500383441768   0.777925256308004   0.625263853140038   1.0000000
B2   B   0.889091539532901   0.777925256308004   0.625263853140038   1.0000000
B2   B   0.722320806177197   0.277679193822803   0.625339025664875   1.0000000
B2   B   0.055683187225218   0.777823477702625   0.124776571281800   1.0000000
B2   B   0.388806957144071   0.777823477702625   0.124776571281800   1.0000000
B2   B   0.222025054312269   0.277679193822803   0.124660974335125   1.0000000
B2   B   0.722320806177197   0.777974945687730   0.124660974335125   1.0000000
B2   B   0.555508145307574   0.277512047275971   0.124414315658983   1.0000000
B2   B   0.888947164918762   0.277769121816303   0.124759200885549   1.0000000
B2   B   0.055583239505610   0.444499812344548   0.625232871062366   1.0000000
B2   B   0.222176522297375   0.944316812774782   0.625223428718200   1.0000000
B2   B   0.555500187655453   0.944416760494390   0.625232871062366   1.0000000
B2   B   0.388670568635061   0.444491854692426   0.625585684341017   1.0000000
B2   B   0.888947164918762   0.944511376435796   0.625240799114451   1.0000000
B2   B   0.055583239505610   0.944416760494390   0.124767128937634   1.0000000
B2   B   0.722487952724029   0.444491854692426   0.625585684341017   1.0000000
B2   B   0.388806957144071   0.944316812774782   0.124776571281800   1.0000000
B2   B   0.222074743691996   0.444499616558232   0.124736146859962   1.0000000
B2   B   0.222176522297375   0.611193042855929   0.124776571281800   1.0000000
B2   B   0.555555555555557   0.444444444444443   0.124176703837721   1.0000000
B2   B   0.722230878183697   0.944511376435796   0.124759200885549   1.0000000
B2   B   0.889091539532901   0.444499616558232   0.124736146859962   1.0000000
B2   B   0.055683187225218   0.611193042855929   0.625223428718200   1.0000000
B2   B   0.222074743691996   0.110908460467099   0.625263853140038   1.0000000
B2   B   0.722487952724029   0.611329431364938   0.625585684341017   1.0000000
B2   B   0.555500383441768   0.110908460467099   0.625263853140038   1.0000000
B2   B   0.888888888888886   0.111111111111114   0.625218160242067   1.0000000


