data_1
_audit_creation_method   'vasp2cif'
_cell_length_a    17.52789999999977
_cell_length_b    17.52789999999977
_cell_length_c    15.0
_cell_angle_alpha    90.0
_cell_angle_beta    90.0
_cell_angle_gamma    119.99999999999916

_symmetry_space_group_name_H-M    'P 1'
loop_
_atom_site_label
_atom_site_type_symbol
_atom_site_fract_x
_atom_site_fract_y
_atom_site_fract_z
_atom_site_occupancy
B2   B   0.905228292588005   0.952837896797969   0.111012333280219   1.0000000
B2   B   0.904704224709218   0.095297796486778   0.111019982102401   1.0000000
B2   B   0.904563607371139   0.237996150531072   0.111043112342725   1.0000000
B2   B   0.904704224709218   0.380835121913436   0.111019982102401   1.0000000
B2   B   0.905228292588005   0.523820801038037   0.111012333280219   1.0000000
B2   B   0.904933389021374   0.666731852515658   0.111046016110131   1.0000000
B2   B   0.904933389021374   0.809631941753718   0.111046016110131   1.0000000
B2   B   0.047650289793321   0.952351731402682   0.111016739891540   1.0000000
B2   B   0.047164124398034   0.094773728607992   0.111012333280219   1.0000000
B2   B   0.046917657089882   0.237642390153199   0.111018321702983   1.0000000
B2   B   0.046917657089882   0.380705672183683   0.111018321702983   1.0000000
B2   B   0.047164124398034   0.523820801038037   0.111012333280219   1.0000000
B2   B   0.047650289793321   0.666730675194636   0.111016739891540   1.0000000
B2   B   0.047665547794631   0.809548832299318   0.111005143761078   1.0000000
B2   B   0.190453188896685   0.952336473401372   0.111005143761078   1.0000000
B2   B   0.190370079442286   0.095068632174622   0.111046016110131   1.0000000
B2   B   0.188857527041669   0.236614644882987   0.111033866072726   1.0000000
B2   B   0.188936819919863   0.380183612583431   0.111015709677005   1.0000000
B2   B   0.188857527041669   0.523673287406684   0.111033866072726   1.0000000
B2   B   0.190370079442286   0.666731852515658   0.111046016110131   1.0000000
B2   B   0.190453188896685   0.809548832299318   0.111005143761078   1.0000000
B2   B   0.333271346002362   0.952351731402682   0.111016739891540   1.0000000
B2   B   0.333270168681341   0.095068632174622   0.111046016110131   1.0000000
B2   B   0.333327197815657   0.238082779681316   0.111052795637809   1.0000000
B2   B   0.330232390127027   0.378692818470482   0.111027364423111   1.0000000
B2   B   0.330232390127027   0.522969976903546   0.111027364423111   1.0000000
B2   B   0.333327197815657   0.666674823381341   0.111052795637809   1.0000000
B2   B   0.333270168681341   0.809631941753718   0.111046016110131   1.0000000
B2   B   0.476181220158961   0.952837896797969   0.111012333280219   1.0000000
B2   B   0.476181220158961   0.094773728607992   0.111012333280219   1.0000000
B2   B   0.476328733790314   0.236614644882987   0.111033866072726   1.0000000
B2   B   0.477032044293453   0.378692818470482   0.111027364423111   1.0000000
B2   B   0.477032044293453   0.669769631069971   0.111027364423111   1.0000000
B2   B   0.476328733790314   0.811144494154334   0.111033866072726   1.0000000
B2   B   0.619296349012320   0.953084364106121   0.111018321702983   1.0000000
B2   B   0.619166899282567   0.095297796486778   0.111019982102401   1.0000000
B2   B   0.619296349012320   0.237642390153199   0.111018321702983   1.0000000
B2   B   0.619818408612572   0.380183612583431   0.111015709677005   1.0000000
B2   B   0.621309202725522   0.522969976903546   0.111027364423111   1.0000000
B2   B   0.621309202725522   0.669769631069971   0.111027364423111   1.0000000
B2   B   0.619818408612572   0.811065201276141   0.111015709677005   1.0000000
B2   B   0.762359631042805   0.953084364106121   0.111018321702983   1.0000000
B2   B   0.762005870664932   0.095438413824858   0.111043112342725   1.0000000
B2   B   0.762005870664932   0.237996150531072   0.111043112342725   1.0000000
B2   B   0.762359631042805   0.380705672183683   0.111018321702983   1.0000000
B2   B   0.763387376313016   0.523673287406684   0.111033866072726   1.0000000
B2   B   0.761919241514687   0.666674823381341   0.111052795637809   1.0000000
B2   B   0.763387376313016   0.811144494154334   0.111033866072726   1.0000000
N2   N   0.952693516348359   0.905010584450077   0.111008756739592   1.0000000
N2   N   0.952299444784590   0.047701957133416   0.110989267802280   1.0000000
N2   N   0.951826428193861   0.190236181670747   0.111014098725027   1.0000000
N2   N   0.951826428193861   0.333017228641112   0.111014098725027   1.0000000
N2   N   0.952299444784590   0.476024469769173   0.110989267802280   1.0000000
N2   N   0.952693516348359   0.619111625573277   0.111008756739592   1.0000000
N2   N   0.952769786234623   0.762099239954814   0.111016608847042   1.0000000
N2   N   0.095277577397389   0.904723824520609   0.110989853912073   1.0000000
N2   N   0.094990817467921   0.047307885569647   0.111008756739592   1.0000000
N2   N   0.093760660164802   0.189311861368152   0.111005610646614   1.0000000
N2   N   0.093596669604565   0.332512681639283   0.110997547163610   1.0000000
N2   N   0.093760660164802   0.475877492470651   0.111005610646614   1.0000000
N2   N   0.094990817467921   0.619111625573277   0.111008756739592   1.0000000
N2   N   0.095277577397389   0.761984158107785   0.110989853912073   1.0000000
N2   N   0.238017243810221   0.904723824520609   0.110989853912073   1.0000000
N2   N   0.237902161963193   0.047231615683382   0.111016608847042   1.0000000
N2   N   0.237418211488240   0.189642840584601   0.111033115987651   1.0000000
N2   N   0.234398971952282   0.330395693353521   0.110999368971746   1.0000000
N2   N   0.234398971952282   0.475431972272756   0.110999368971746   1.0000000
N2   N   0.237418211488240   0.619204064578634   0.111033115987651   1.0000000
N2   N   0.237902161963193   0.762099239954814   0.111016608847042   1.0000000
N2   N   0.380889776344721   0.905010584450077   0.111008756739592   1.0000000
N2   N   0.380889776344721   0.047307885569647   0.111008756739592   1.0000000
N2   N   0.380797337339364   0.189642840584601   0.111033115987651   1.0000000
N2   N   0.380383364287325   0.332194020331648   0.111017605350033   1.0000000
N2   N   0.366930475566987   0.469179584620491   0.111030640815204   1.0000000
N2   N   0.380383364287325   0.619618037630673   0.111017605350033   1.0000000
N2   N   0.380797337339364   0.762583190429766   0.111033115987651   1.0000000
N2   N   0.524123909446346   0.906240741753197   0.111005610646614   1.0000000
N2   N   0.523976932147824   0.047701957133416   0.110989267802280   1.0000000
N2   N   0.524123909446346   0.189311861368152   0.111005610646614   1.0000000
N2   N   0.524569429644241   0.330395693353520   0.110999368971746   1.0000000
N2   N   0.530821817296506   0.469179584620491   0.111030640815204   1.0000000
N2   N   0.530821817296506   0.633070926351011   0.111030640815204   1.0000000
N2   N   0.524569429644241   0.765602429965723   0.110999368971746   1.0000000
N2   N   0.667488720277714   0.906404732313434   0.110997547163610   1.0000000
N2   N   0.666984173275884   0.048174973724145   0.111014098725027   1.0000000
N2   N   0.666984173275884   0.190236181670747   0.111014098725027   1.0000000
N2   N   0.667488720277714   0.332512681639283   0.110997547163610   1.0000000
N2   N   0.669605708563476   0.475431972272756   0.110999368971746   1.0000000
N2   N   0.667807381585349   0.619618037630673   0.111017605350033   1.0000000
N2   N   0.669605708563476   0.765602429965723   0.110999368971746   1.0000000
N2   N   0.810689540549847   0.906240741753197   0.111005610646614   1.0000000
N2   N   0.809765220247252   0.048174973724145   0.111014098725027   1.0000000
N2   N   0.809525273905997   0.190476128012001   0.111028955410139   1.0000000
N2   N   0.809765220247252   0.333017228641112   0.111014098725027   1.0000000
N2   N   0.810689540549847   0.475877492470651   0.111005610646614   1.0000000
N2   N   0.810358561333397   0.619204064578634   0.111033115987651   1.0000000
N2   N   0.810358561333397   0.762583190429766   0.111033115987651   1.0000000
O2   O   0.476191212381998   0.523810808815000   0.111152906722652   1.0000000


