data_1
_audit_creation_method   'vasp2cif'
_cell_length_a    17.52789999999977
_cell_length_b    17.52789999999977
_cell_length_c    15.0
_cell_angle_alpha    90.0
_cell_angle_beta    90.0
_cell_angle_gamma    119.99999999999916

_symmetry_space_group_name_H-M    'P 1'
loop_
_atom_site_label
_atom_site_type_symbol
_atom_site_fract_x
_atom_site_fract_y
_atom_site_fract_z
_atom_site_occupancy
B2   B   0.905172510485822   0.952643427544398   0.111022585825809   1.0000000
B2   B   0.904448750721040   0.094843913699689   0.111061824543423   1.0000000
B2   B   0.904371422712783   0.238456452740360   0.111073828118275   1.0000000
B2   B   0.904855576889103   0.381126419917396   0.111023053745905   1.0000000
B2   B   0.905373450054184   0.523998857283410   0.111026792021554   1.0000000
B2   B   0.906485568415721   0.667056864934394   0.111072721543721   1.0000000
B2   B   0.906334410347585   0.810394101140969   0.111054605019389   1.0000000
B2   B   0.047564160189450   0.951589811009161   0.111031564612674   1.0000000
B2   B   0.046490588845508   0.094349748483389   0.111034077150652   1.0000000
B2   B   0.047480859763288   0.238279582265010   0.111034566754594   1.0000000
B2   B   0.047233850435922   0.381182967063547   0.111036578284624   1.0000000
B2   B   0.047623339671859   0.524138160542147   0.111023552251987   1.0000000
B2   B   0.047994971862365   0.666791398074217   0.111046508354184   1.0000000
B2   B   0.048362030432699   0.809684017409694   0.111036836895397   1.0000000
B2   B   0.190354605260879   0.951699690781871   0.111033712133566   1.0000000
B2   B   0.189609505332082   0.093169456218494   0.111065903768592   1.0000000
B2   B   0.188956618129775   0.234976859632111   0.111008915474276   1.0000000
B2   B   0.190270410421388   0.382367086678787   0.111002761735768   1.0000000
B2   B   0.190613245574350   0.524670287253904   0.111049194121032   1.0000000
B2   B   0.189877642275312   0.667223232391886   0.111055609071409   1.0000000
B2   B   0.190379349754047   0.809517603836359   0.111018030750927   1.0000000
B2   B   0.333322158533383   0.952141281817936   0.111038726760192   1.0000000
B2   B   0.332826337603116   0.093436122302533   0.111077397836226   1.0000000
B2   B   0.329632724694096   0.232595827350294   0.111043839268024   1.0000000
B2   B   0.333895560395005   0.526103567617147   0.111033238865277   1.0000000
B2   B   0.331653565348352   0.668410682902370   0.111062817023234   1.0000000
B2   B   0.332866185769220   0.810295544684414   0.111050445830422   1.0000000
B2   B   0.476038969469916   0.952904729070435   0.111023153544766   1.0000000
B2   B   0.476223420435733   0.094842309349638   0.111026263670625   1.0000000
B2   B   0.476232979325209   0.236891119459230   0.111060854443996   1.0000000
B2   B   0.474166876440094   0.377174110710236   0.110941372970368   1.0000000
B2   B   0.473157380736633   0.669529600062190   0.110941375882942   1.0000000
B2   B   0.475686108633765   0.811062826695366   0.111045267564906   1.0000000
B2   B   0.618814788358373   0.952409974159120   0.111035976984421   1.0000000
B2   B   0.618928739151660   0.095383780546954   0.111018457007454   1.0000000
B2   B   0.619128619341199   0.238077559485665   0.111026767359998   1.0000000
B2   B   0.619445044234364   0.381012643281662   0.111023758599537   1.0000000
B2   B   0.624191292128267   0.527968819145108   0.110965361959802   1.0000000
B2   B   0.624560796233703   0.668740873193759   0.110977401314787   1.0000000
B2   B   0.619195274918652   0.809939963073129   0.111006369303703   1.0000000
B2   B   0.762083364059019   0.952580900231512   0.111020814544067   1.0000000
B2   B   0.761956009453910   0.095430912064852   0.111052532809339   1.0000000
B2   B   0.761809788326874   0.238042199952660   0.111066486637515   1.0000000
B2   B   0.762188041509068   0.381289502586669   0.111033200268077   1.0000000
B2   B   0.763739167610685   0.524582826309055   0.111069544073161   1.0000000
B2   B   0.766300293531671   0.668927094834832   0.111052776611535   1.0000000
B2   B   0.763728582159202   0.810439097572471   0.111026599616672   1.0000000
C2   C   0.472264834970697   0.523708272644680   0.110895546215376   1.0000000
C2   C   0.520632365252612   0.478415521216818   0.110806524375634   1.0000000
C2   C   0.521998686135623   0.616688418141434   0.110814803030279   1.0000000
N2   N   0.952910335510198   0.905025855737131   0.111017485355854   1.0000000
N2   N   0.951957680440268   0.047271621663448   0.111020815747165   1.0000000
N2   N   0.952156776319361   0.190463748197147   0.111056424486816   1.0000000
N2   N   0.952172662216602   0.333467130577545   0.111031209428445   1.0000000
N2   N   0.952617939688081   0.476311165565108   0.110987482131757   1.0000000
N2   N   0.953090225997805   0.619126866535922   0.111030372960772   1.0000000
N2   N   0.953397874367504   0.762455227125221   0.111046054670230   1.0000000
N2   N   0.095487706142885   0.904614278934279   0.111007405240378   1.0000000
N2   N   0.094513269739105   0.046695199663056   0.111020865974070   1.0000000
N2   N   0.093665482263567   0.189077981891228   0.111012621295779   1.0000000
N2   N   0.094722193472692   0.333557073724244   0.111009794174607   1.0000000
N2   N   0.095486515568841   0.476455273754258   0.111017933827895   1.0000000
N2   N   0.095164140424086   0.619290650269037   0.111027698591766   1.0000000
N2   N   0.095485207047427   0.761996447747537   0.111015952473044   1.0000000
N2   N   0.238027974753494   0.904632321666495   0.111004543579201   1.0000000
N2   N   0.237826797561291   0.046625829022760   0.111047514182316   1.0000000
N2   N   0.236290359371946   0.187514612278664   0.111033713482003   1.0000000
N2   N   0.227069720925690   0.326958895836318   0.110913388275955   1.0000000
N2   N   0.239578532688551   0.477716371102331   0.111027160825590   1.0000000
N2   N   0.237380498986162   0.619695046171907   0.111045796693787   1.0000000
N2   N   0.237912318155453   0.762275676993644   0.111027293832397   1.0000000
N2   N   0.380894722745108   0.905088070133439   0.111021336685952   1.0000000
N2   N   0.380961617311162   0.047072243253574   0.111033608189453   1.0000000
N2   N   0.380630156210059   0.188651107000628   0.111049584133198   1.0000000
N2   N   0.383537140332236   0.325271694302179   0.110958402405557   1.0000000
N2   N   0.383517136944112   0.478624617088517   0.110993177405383   1.0000000
N2   N   0.379436513978404   0.620986334207083   0.111019132144065   1.0000000
N2   N   0.380597820960259   0.762986683488749   0.111036812710427   1.0000000
N2   N   0.523750396103722   0.905518620933491   0.111022774343313   1.0000000
N2   N   0.523826866867721   0.047772388170859   0.110992178657114   1.0000000
N2   N   0.523930778214526   0.190095529366273   0.111024923646734   1.0000000
N2   N   0.523999504894888   0.332227631084317   0.111013442022100   1.0000000
N2   N   0.523338050583694   0.763185379553664   0.110992251636761   1.0000000
N2   N   0.666497865268028   0.904379519989033   0.111004833505786   1.0000000
N2   N   0.666735082510424   0.047672033849985   0.111025359855090   1.0000000
N2   N   0.666563852031467   0.190558413753551   0.111024993854152   1.0000000
N2   N   0.666674952970962   0.333793951144258   0.111005747742070   1.0000000
N2   N   0.667504253495811   0.477414176193601   0.111023737676886   1.0000000
N2   N   0.671658856054674   0.621790620412832   0.111015822903610   1.0000000
N2   N   0.667993280922843   0.762314172258092   0.111004472789046   1.0000000
N2   N   0.810133670293175   0.905213732566620   0.111009492027482   1.0000000
N2   N   0.809368250120076   0.047485726109427   0.111027855645739   1.0000000
N2   N   0.809363575781199   0.190522813665997   0.111051781369092   1.0000000
N2   N   0.809464646044118   0.333357659621299   0.111031794738061   1.0000000
N2   N   0.810021357104593   0.476444843804992   0.111032304056797   1.0000000
N2   N   0.811537911108674   0.619694793637775   0.111049152489273   1.0000000
N2   N   0.811496998542807   0.763237049324145   0.111022988901949   1.0000000


