data_1
_audit_creation_method   'vasp2cif'
_cell_length_a    17.52789999999977
_cell_length_b    17.52789999999977
_cell_length_c    15.0
_cell_angle_alpha    90.0
_cell_angle_beta    90.0
_cell_angle_gamma    119.99999999999916

_symmetry_space_group_name_H-M    'P 1'
loop_
_atom_site_label
_atom_site_type_symbol
_atom_site_fract_x
_atom_site_fract_y
_atom_site_fract_z
_atom_site_occupancy
B2   B   0.905485399469673   0.952916129241344   0.111013477786456   1.0000000
B2   B   0.904921210333832   0.095342196994967   0.111052891467627   1.0000000
B2   B   0.904803833751079   0.238126333811768   0.111064453129568   1.0000000
B2   B   0.904919998354065   0.381011337522212   0.111007013584391   1.0000000
B2   B   0.905495955058388   0.524006367475523   0.111020712984164   1.0000000
B2   B   0.906408877718088   0.667271677428226   0.111100546030449   1.0000000
B2   B   0.906396631174392   0.810572665094268   0.111066451222833   1.0000000
B2   B   0.047960010071249   0.952448398195116   0.111017092865836   1.0000000
B2   B   0.047614265682935   0.095077678405414   0.111009389501749   1.0000000
B2   B   0.047490797588138   0.237906959712738   0.111003513597467   1.0000000
B2   B   0.047481143780053   0.381002293554954   0.111024486959990   1.0000000
B2   B   0.047616440113883   0.523956343613697   0.111016108880908   1.0000000
B2   B   0.047986714975921   0.666961825449518   0.111038970250185   1.0000000
B2   B   0.048231668174268   0.809841975303420   0.111019980446837   1.0000000
B2   B   0.190352891171715   0.952067624553607   0.111011447290185   1.0000000
B2   B   0.189778019238602   0.094166481364977   0.111061040167560   1.0000000
B2   B   0.189857724571235   0.237109504020075   0.111020023301132   1.0000000
B2   B   0.189911028929571   0.380650197270099   0.111018939650736   1.0000000
B2   B   0.189863879171126   0.524165700586011   0.111075110429186   1.0000000
B2   B   0.189784380192104   0.667025422723754   0.111086081621417   1.0000000
B2   B   0.190366986508361   0.809723662508859   0.111004233939030   1.0000000
B2   B   0.333027101008091   0.952222020705111   0.111040045320246   1.0000000
B2   B   0.332761190052471   0.094077522114898   0.111102175911779   1.0000000
B2   B   0.331510380049542   0.235382471105697   0.111036746657621   1.0000000
B2   B   0.332028960261844   0.378835562467296   0.111022793206470   1.0000000
B2   B   0.332026774450479   0.524584091448313   0.111019050741477   1.0000000
B2   B   0.331521870168264   0.667542992580173   0.111087465893400   1.0000000
B2   B   0.332763301564708   0.810107133499921   0.111081787544295   1.0000000
B2   B   0.475956510553511   0.952784152412892   0.111022096688469   1.0000000
B2   B   0.475958336706127   0.094605444685746   0.111025718744496   1.0000000
B2   B   0.475635895529985   0.236058286933767   0.111061944958322   1.0000000
B2   B   0.473293432667999   0.375293536784540   0.111061814198501   1.0000000
B2   B   0.473287104379701   0.669421443293117   0.110879418659241   1.0000000
B2   B   0.475634481318717   0.811011641109865   0.111038341604350   1.0000000
B2   B   0.618916426723675   0.952746845985610   0.111030497372883   1.0000000
B2   B   0.618993843626315   0.095221304053868   0.111010515840877   1.0000000
B2   B   0.618930559530868   0.237620978205577   0.111021564970488   1.0000000
B2   B   0.619201802894371   0.380478005365689   0.111006683117449   1.0000000
B2   B   0.623310834716730   0.526345613754870   0.111003020338537   1.0000000
B2   B   0.623309672390059   0.668401280259146   0.110901491040182   1.0000000
B2   B   0.619208525675609   0.810156356219939   0.110958169230031   1.0000000
B2   B   0.762375790404335   0.952753400936935   0.111019124683494   1.0000000
B2   B   0.761988332174748   0.095356754936835   0.111066051033926   1.0000000
B2   B   0.761989952512623   0.238082956797955   0.111066040584253   1.0000000
B2   B   0.762380227159822   0.381050757021494   0.111019326331641   1.0000000
B2   B   0.763653795105197   0.524313377515285   0.111058537043030   1.0000000
B2   B   0.765738453863492   0.668586846099074   0.111017442182640   1.0000000
B2   B   0.763656992532084   0.810784694138799   0.111000568874488   1.0000000
C2   C   0.471339194248404   0.521382447116186   0.110934542369074   1.0000000
C2   C   0.521656518436751   0.475811293687758   0.111107975001746   1.0000000
C2   C   0.521667561424699   0.617294920708793   0.110823310727587   1.0000000
N2   N   0.952985244926900   0.905275093485566   0.111011405261446   1.0000000
N2   N   0.952596808507951   0.047857327211844   0.111003658524955   1.0000000
N2   N   0.952507741564123   0.190566798812036   0.111032088038660   1.0000000
N2   N   0.952507185735024   0.333379520235692   0.111015120669489   1.0000000
N2   N   0.952600859601584   0.476170780791860   0.110966151665269   1.0000000
N2   N   0.953001982716092   0.619155497729744   0.111039065173569   1.0000000
N2   N   0.953144805558852   0.762295459443823   0.111066380015369   1.0000000
N2   N   0.095396601561049   0.904818078420032   0.110979342954901   1.0000000
N2   N   0.095061254084014   0.047414497235038   0.111016500644717   1.0000000
N2   N   0.095227929519456   0.190429971600849   0.110978661654480   1.0000000
N2   N   0.095438375741712   0.333428249335332   0.110993763565081   1.0000000
N2   N   0.095230643154604   0.476217977172665   0.111021597722191   1.0000000
N2   N   0.095070038835067   0.619073114519091   0.111030986165089   1.0000000
N2   N   0.095406369874105   0.762027151895404   0.110993136963195   1.0000000
N2   N   0.238024882684444   0.904728351951447   0.110985157374521   1.0000000
N2   N   0.237833239735958   0.047167861399176   0.111057486410739   1.0000000
N2   N   0.237087809934471   0.189309329846652   0.111028586247830   1.0000000
N2   N   0.238080968000792   0.333162081347197   0.111006953429696   1.0000000
N2   N   0.238078741952841   0.476320809147933   0.111038430800207   1.0000000
N2   N   0.237093532851921   0.619194461418009   0.111090808168152   1.0000000
N2   N   0.237835500543378   0.762087490931552   0.111046498133123   1.0000000
N2   N   0.380810107494241   0.904954148637895   0.111030147042307   1.0000000
N2   N   0.380811495431468   0.047279448163879   0.111047522799966   1.0000000
N2   N   0.380473683325308   0.189432700813935   0.111073716021695   1.0000000
N2   N   0.378965862867402   0.330488495852971   0.111008107606234   1.0000000
N2   N   0.380375702367414   0.475890237719057   0.110983844567486   1.0000000
N2   N   0.378959170574663   0.619883015231705   0.110985012386903   1.0000000
N2   N   0.380471401480278   0.762461856648124   0.111077874119712   1.0000000
N2   N   0.523731373333907   0.905463359144779   0.111023975326373   1.0000000
N2   N   0.523829409410000   0.047631730078445   0.110974444362804   1.0000000
N2   N   0.523738735509461   0.189708341964948   0.111023296562416   1.0000000
N2   N   0.523247326592684   0.331423301448967   0.111008209915108   1.0000000
N2   N   0.523247357574360   0.763260786443351   0.110933400513078   1.0000000
N2   N   0.666584932528940   0.904595341674663   0.110993098718400   1.0000000
N2   N   0.666683502449001   0.047635986768977   0.111021453876516   1.0000000
N2   N   0.666688147765158   0.190494975349396   0.111022650280966   1.0000000
N2   N   0.666589242045551   0.333432616009891   0.110994086169137   1.0000000
N2   N   0.667738228048424   0.476731657529232   0.110997548151842   1.0000000
N2   N   0.671169356010936   0.621301340121578   0.110924869506396   1.0000000
N2   N   0.667744766329142   0.762449168935056   0.110937400085296   1.0000000
N2   N   0.810154484407983   0.905310390497691   0.110995732550939   1.0000000
N2   N   0.809591616238971   0.047647886549808   0.111041232137872   1.0000000
N2   N   0.809583507206626   0.190516292673640   0.111063836053609   1.0000000
N2   N   0.809597225777222   0.333384349059878   0.111021922484064   1.0000000
N2   N   0.810158313891927   0.476283355192821   0.111019363848486   1.0000000
N2   N   0.811240835822489   0.619493379977011   0.111070530624139   1.0000000
N2   N   0.811235886570184   0.763184893100676   0.111028718718857   1.0000000


