data_1
_audit_creation_method   'vasp2cif'
_cell_length_a    17.52789999999977
_cell_length_b    17.52789999999977
_cell_length_c    15.0
_cell_angle_alpha    90.0
_cell_angle_beta    90.0
_cell_angle_gamma    119.99999999999916

_symmetry_space_group_name_H-M    'P 1'
loop_
_atom_site_label
_atom_site_type_symbol
_atom_site_fract_x
_atom_site_fract_y
_atom_site_fract_z
_atom_site_occupancy
B2   B   0.905176709878286   0.953119780773561   0.110488579858590   1.0000000
B2   B   0.904393601004323   0.095608420191674   0.109319792827775   1.0000000
B2   B   0.904085952450920   0.238469898101933   0.109855214543264   1.0000000
B2   B   0.904124205833093   0.381309326418217   0.111733061990098   1.0000000
B2   B   0.904685639550983   0.524214132965402   0.113855263176978   1.0000000
B2   B   0.905566132836293   0.667319806784397   0.113501810490542   1.0000000
B2   B   0.906126905895666   0.810775990198410   0.113070308733121   1.0000000
B2   B   0.047740344673550   0.952261676522454   0.110970660152592   1.0000000
B2   B   0.046882240422443   0.094825311317711   0.110488579858590   1.0000000
B2   B   0.046675524944993   0.237888295291111   0.110159426666297   1.0000000
B2   B   0.046905264699915   0.380904374218971   0.109878343543243   1.0000000
B2   B   0.047579640630370   0.523768281514678   0.110007450927031   1.0000000
B2   B   0.048057458365005   0.666657911159345   0.110901560697887   1.0000000
B2   B   0.048176413692061   0.809559372684721   0.111252786537979   1.0000000
B2   B   0.190442648511283   0.951825607503943   0.111252786537979   1.0000000
B2   B   0.189226030997593   0.093875115300330   0.113070308733121   1.0000000
B2   B   0.188475704844024   0.236475321697655   0.112583543264284   1.0000000
B2   B   0.189233186267601   0.380161435900782   0.112774479799462   1.0000000
B2   B   0.190598376075054   0.523431524721339   0.110936105322593   1.0000000
B2   B   0.190867371214432   0.666366855424912   0.109670270343789   1.0000000
B2   B   0.190808170846688   0.809193850349316   0.109541294552693   1.0000000
B2   B   0.333344110037652   0.951944562830998   0.110901560697887   1.0000000
B2   B   0.332682214412601   0.094435888359704   0.113501810490542   1.0000000
B2   B   0.330305855378709   0.235127461586234   0.111858872456557   1.0000000
B2   B   0.329756115993133   0.377290490365123   0.114205641906259   1.0000000
B2   B   0.333573513391879   0.522961129299193   0.118910359035226   1.0000000
B2   B   0.333878297221768   0.666123723975230   0.113651677503244   1.0000000
B2   B   0.333635165772086   0.809134649981571   0.109670270343789   1.0000000
B2   B   0.476233739682320   0.952422380565634   0.110007450927031   1.0000000
B2   B   0.475787888231597   0.095316381645014   0.113855263176978   1.0000000
B2   B   0.475091670091951   0.238023827883102   0.113743642184942   1.0000000
B2   B   0.469329582883879   0.375077937504660   0.089521486926346   1.0000000
B2   B   0.477040891897805   0.666428507805120   0.118910359035226   1.0000000
B2   B   0.476570496475660   0.809403645120948   0.110936105322593   1.0000000
B2   B   0.619097646977033   0.953096756496088   0.109878343543243   1.0000000
B2   B   0.618692694777787   0.095877815362903   0.111733061990098   1.0000000
B2   B   0.618246794207620   0.238927019364667   0.115515885938109   1.0000000
B2   B   0.617824259189120   0.382177762006884   0.110087148116012   1.0000000
B2   B   0.624924083691344   0.530672438313119   0.089521486926346   1.0000000
B2   B   0.622711530830881   0.670245905203865   0.114205641906259   1.0000000
B2   B   0.619840585295222   0.810768834928402   0.112774479799462   1.0000000
B2   B   0.762113725904893   0.953326496251011   0.110159426666297   1.0000000
B2   B   0.761532123094070   0.095916068745076   0.109855214543264   1.0000000
B2   B   0.761226699103036   0.238775322092967   0.112678660119816   1.0000000
B2   B   0.761075001831336   0.381755226988384   0.115515885938109   1.0000000
B2   B   0.761978193312902   0.524910351105047   0.113743642184942   1.0000000
B2   B   0.764874559609769   0.669696165818288   0.111858872456557   1.0000000
B2   B   0.763526699498348   0.811526316351981   0.112583543264284   1.0000000
N2   N   0.952921746797902   0.905547491700102   0.111205065744986   1.0000000
N2   N   0.952024720373932   0.047976681544074   0.109577439502596   1.0000000
N2   N   0.951661871063568   0.190740121858830   0.109322006057037   1.0000000
N2   N   0.951741242227646   0.333644474435503   0.109986195871472   1.0000000
N2   N   0.952250288171596   0.476453284377418   0.111551214938647   1.0000000
N2   N   0.952902069977705   0.619406006027390   0.113076960318182   1.0000000
N2   N   0.953189196371439   0.762523048484784   0.112924702269385   1.0000000
N2   N   0.095396299412553   0.904605102505445   0.110833606923378   1.0000000
N2   N   0.094453910217896   0.047079655120104   0.111205065744986   1.0000000
N2   N   0.093798588630105   0.189808655806707   0.110842437126003   1.0000000
N2   N   0.094291281397492   0.333114393583505   0.110641557700965   1.0000000
N2   N   0.095283719535222   0.476117262031928   0.109489578530075   1.0000000
N2   N   0.095650032801438   0.618941138417016   0.109700102064462   1.0000000
N2   N   0.095728226848182   0.761806585449955   0.110147504340231   1.0000000
N2   N   0.238194816468051   0.904273175069817   0.110147504340231   1.0000000
N2   N   0.237478353433222   0.046812205546567   0.112924702269385   1.0000000
N2   N   0.235701381539257   0.188535286494565   0.114355031861141   1.0000000
N2   N   0.235531761816268   0.331559032229824   0.113586082418892   1.0000000
N2   N   0.238369323274551   0.475665467296499   0.113101842097559   1.0000000
N2   N   0.238650473515250   0.618657217709495   0.110944157320273   1.0000000
N2   N   0.238473243173156   0.761528158744849   0.109313911364367   1.0000000
N2   N   0.381060263500983   0.904351369116561   0.109700102064462   1.0000000
N2   N   0.380595395890608   0.047099331940301   0.113076960318182   1.0000000
N2   N   0.379650719509512   0.189325882034665   0.113259174543833   1.0000000
N2   N   0.375762963109820   0.329150140569581   0.105156469223454   1.0000000
N2   N   0.379205151804112   0.472670396919501   0.125387808912684   1.0000000
N2   N   0.381773661963988   0.618227739954010   0.119270176328680   1.0000000
N2   N   0.381344184208503   0.761350928402755   0.110944157320273   1.0000000
N2   N   0.523884139885070   0.904717682382776   0.109489578530075   1.0000000
N2   N   0.523548117539578   0.047751113746410   0.111551214938647   1.0000000
N2   N   0.523033657110502   0.190651519224194   0.116174418737742   1.0000000
N2   N   0.522010727505113   0.333262393073737   0.108134576007162   1.0000000
N2   N   0.527331004997495   0.620796250113887   0.125387808912684   1.0000000
N2   N   0.524335934620498   0.761632078643456   0.113101842097559   1.0000000
N2   N   0.666887008333492   0.905710120520507   0.110641557700965   1.0000000
N2   N   0.666356927481494   0.048260159690360   0.109986195871472   1.0000000
N2   N   0.666005222456691   0.191200396196611   0.113796217021151   1.0000000
N2   N   0.665565240826134   0.334436161090863   0.115693557463409   1.0000000
N2   N   0.666739008843259   0.477990674411884   0.108134576007162   1.0000000
N2   N   0.670851261347416   0.624238438808178   0.105156469223454   1.0000000
N2   N   0.668442369687174   0.764469640101737   0.113586082418892   1.0000000
N2   N   0.810192746111292   0.906202813287894   0.110842437126003   1.0000000
N2   N   0.809261280059169   0.048339530854438   0.109322006057037   1.0000000
N2   N   0.808897413778077   0.191103988139922   0.110406520941285   1.0000000
N2   N   0.808801005721388   0.333996179460306   0.113796217021151   1.0000000
N2   N   0.809349882693805   0.476967744806495   0.116174418737742   1.0000000
N2   N   0.810675519883334   0.620350682408486   0.113259174543833   1.0000000
N2   N   0.811466115423434   0.764300020378749   0.114355031861141   1.0000000
P2   P   0.487187588103294   0.512814433093704   0.156316623808385   1.0000000
P2   P   0.525455144422390   0.474546257494607   0.007884535499894   1.0000000


