data_1
_audit_creation_method   'vasp2cif'
_cell_length_a    17.52789999999977
_cell_length_b    17.52789999999977
_cell_length_c    15.0
_cell_angle_alpha    90.0
_cell_angle_beta    90.0
_cell_angle_gamma    119.99999999999916

_symmetry_space_group_name_H-M    'P 1'
loop_
_atom_site_label
_atom_site_type_symbol
_atom_site_fract_x
_atom_site_fract_y
_atom_site_fract_z
_atom_site_occupancy
B2   B   0.904100585664420   0.951088773717072   0.110983349612355   1.0000000
B2   B   0.905560499254186   0.094441269616816   0.111067901803224   1.0000000
B2   B   0.906132081414495   0.237373183935308   0.111093021343336   1.0000000
B2   B   0.906076937334143   0.380288874040412   0.111043624011515   1.0000000
B2   B   0.904745199869723   0.523131756178280   0.111028831390156   1.0000000
B2   B   0.902821276837387   0.665510459018649   0.111059917884118   1.0000000
B2   B   0.902414292628451   0.807567299489982   0.110998439729892   1.0000000
B2   B   0.047352610172088   0.952649111983912   0.110953472851712   1.0000000
B2   B   0.048912932049926   0.095901116527582   0.110983350802358   1.0000000
B2   B   0.049370203123256   0.238484313527454   0.111065284750017   1.0000000
B2   B   0.048707627087141   0.381235846445019   0.111056693560249   1.0000000
B2   B   0.047144674069147   0.524174252273920   0.111020352441917   1.0000000
B2   B   0.046139219273888   0.666999812853126   0.111044651071522   1.0000000
B2   B   0.046313964408718   0.809679768867759   0.110986220793236   1.0000000
B2   B   0.190321974152241   0.953687787630286   0.110986217257234   1.0000000
B2   B   0.192434410820020   0.097587450828548   0.110998437668892   1.0000000
B2   B   0.193707002899260   0.240643594913634   0.110999719414445   1.0000000
B2   B   0.192209203727951   0.382605276345759   0.110991015856540   1.0000000
B2   B   0.189297177754056   0.525279870924818   0.111034148704354   1.0000000
B2   B   0.188518329437186   0.668085238240183   0.111096665899152   1.0000000
B2   B   0.189250505284040   0.810751131053958   0.111056873994957   1.0000000
B2   B   0.333001854608874   0.953862422085111   0.111044648188523   1.0000000
B2   B   0.334491292828352   0.097180462911608   0.111059916880121   1.0000000
B2   B   0.338184248312577   0.242839828412661   0.111032856793309   1.0000000
B2   B   0.338306550957544   0.384245397518711   0.110925561692677   1.0000000
B2   B   0.331080413665830   0.528878517010013   0.111046173069082   1.0000000
B2   B   0.330212160838207   0.669789661773792   0.111067420427706   1.0000000
B2   B   0.331916413785811   0.811483355149811   0.111096664117154   1.0000000
B2   B   0.475827391642081   0.952856917381855   0.111020357737919   1.0000000
B2   B   0.476869964242717   0.095256469355278   0.111028845410159   1.0000000
B2   B   0.478613272488120   0.238055540789036   0.111078458364252   1.0000000
B2   B   0.485828433837204   0.383583284062317   0.111143216789129   1.0000000
B2   B   0.471123211978984   0.668921348585166   0.111046172740080   1.0000000
B2   B   0.474721916086182   0.810704652074941   0.111034148679350   1.0000000
B2   B   0.618765898444981   0.951294100636864   0.111056696293252   1.0000000
B2   B   0.619712783996587   0.093924676571857   0.111043631229513   1.0000000
B2   B   0.620839334803437   0.236106826218824   0.111016190017095   1.0000000
B2   B   0.622592577926259   0.377409221352741   0.111042896944603   1.0000000
B2   B   0.616418450002685   0.514173201873798   0.111143216615124   1.0000000
B2   B   0.615756260107289   0.661695046976451   0.110925559278679   1.0000000
B2   B   0.617396448384237   0.807792559885049   0.110991014021542   1.0000000
B2   B   0.761517409074539   0.950631545126745   0.111065287104017   1.0000000
B2   B   0.762628516967690   0.093869607593506   0.111093020847334   1.0000000
B2   B   0.763358515888171   0.236643107342828   0.111024074778798   1.0000000
B2   B   0.763894906161176   0.379162389823560   0.111016183440098   1.0000000
B2   B   0.761946328305966   0.521388499496885   0.111078451130259   1.0000000
B2   B   0.757161960665338   0.661817444244422   0.111032858352304   1.0000000
B2   B   0.759358060755360   0.806294660802741   0.110999720434450   1.0000000
N2   N   0.951211490567549   0.903407541249753   0.110949423189303   1.0000000
N2   N   0.953057060942918   0.046944659186081   0.110977496145702   1.0000000
N2   N   0.954079835668996   0.190093943415790   0.111072229372779   1.0000000
N2   N   0.953944892401545   0.332877200282508   0.111063279256948   1.0000000
N2   N   0.952548057448191   0.475720710182345   0.110996920703131   1.0000000
N2   N   0.950985264179163   0.618490445539922   0.111032871419208   1.0000000
N2   N   0.950510893938278   0.760872113308132   0.111006039205707   1.0000000
N2   N   0.094761703679123   0.905240061893882   0.110943428451937   1.0000000
N2   N   0.096594173669248   0.048790235925448   0.110949433696304   1.0000000
N2   N   0.098121802006197   0.192132118684089   0.111007190394332   1.0000000
N2   N   0.097593117420737   0.334348723687062   0.111026450005651   1.0000000
N2   N   0.095187100057089   0.476671674987858   0.111008518505216   1.0000000
N2   N   0.093917109687592   0.619502557027844   0.111035795698944   1.0000000
N2   N   0.093988527352888   0.762337627152489   0.111007006765024   1.0000000
N2   N   0.237664040474508   0.906013125026110   0.111007005842022   1.0000000
N2   N   0.239129629863868   0.049490883416719   0.111006028998704   1.0000000
N2   N   0.242238493901332   0.194508137522715   0.110991098566698   1.0000000
N2   N   0.243470446271712   0.337889894884702   0.110944049283484   1.0000000
N2   N   0.238215834244270   0.478193328334131   0.111013770127732   1.0000000
N2   N   0.236254779720837   0.620412523328972   0.111054062601545   1.0000000
N2   N   0.236862713287619   0.763138936155380   0.111087156546780   1.0000000
N2   N   0.380499086563154   0.906084513531408   0.111035786414943   1.0000000
N2   N   0.381511259774077   0.049016366672843   0.111032876979212   1.0000000
N2   N   0.383431198791122   0.193173089010548   0.111063992935628   1.0000000
N2   N   0.389240912099603   0.341751535722137   0.111008088885747   1.0000000
N2   N   0.384943825542118   0.485457925135583   0.110863216756105   1.0000000
N2   N   0.378013667492482   0.621988087342516   0.111055926024510   1.0000000
N2   N   0.379589275444027   0.763747079134164   0.111054069483542   1.0000000
N2   N   0.523330101329148   0.904814703005911   0.111008523773215   1.0000000
N2   N   0.524280946638654   0.047453486657807   0.110996938700127   1.0000000
N2   N   0.525459358486009   0.190158938075561   0.111019232937743   1.0000000
N2   N   0.528509774074059   0.333322534935536   0.111068047813023   1.0000000
N2   N   0.470543727731319   0.529457811011682   0.110666551381329   1.0000000
N2   N   0.514543621638418   0.615057674420881   0.110863220289101   1.0000000
N2   N   0.521808407967872   0.761785978838733   0.111013765100734   1.0000000
N2   N   0.665653031538932   0.902408666735268   0.111026448710651   1.0000000
N2   N   0.667124512207489   0.046056781980453   0.111063281967945   1.0000000
N2   N   0.668111884972267   0.188668459429240   0.111000083414198   1.0000000
N2   N   0.669413019466900   0.330588738702098   0.110978442412228   1.0000000
N2   N   0.666679400031466   0.471492000952943   0.111068042970021   1.0000000
N2   N   0.658250259466863   0.610760736050401   0.111008090193750   1.0000000
N2   N   0.662111708494296   0.756531203590295   0.110944044498484   1.0000000
N2   N   0.807869564573909   0.901879906080801   0.111007192067334   1.0000000
N2   N   0.809907826419212   0.045921947493009   0.111072232838778   1.0000000
N2   N   0.810902212297017   0.189099445133984   0.111061274792511   1.0000000
N2   N   0.811333168894760   0.331889758288734   0.111000077898198   1.0000000
N2   N   0.809842786965441   0.474542359548992   0.111019213608743   1.0000000
N2   N   0.806828744538444   0.616570552254878   0.111063992305626   1.0000000
N2   N   0.805493590321287   0.757763199761669   0.110991103318694   1.0000000


