data_1
_audit_creation_method   'vasp2cif'
_cell_length_a    14.93631414619966
_cell_length_b    14.936314146199727
_cell_length_c    13.341276283792837
_cell_angle_alpha    90.0
_cell_angle_beta    90.0
_cell_angle_gamma    119.99999999999984

_symmetry_space_group_name_H-M    'P 1'
loop_
_atom_site_label
_atom_site_type_symbol
_atom_site_fract_x
_atom_site_fract_y
_atom_site_fract_z
_atom_site_occupancy
C2   C   0.555555555555557   0.444444444444443   0.375000000000000   1.0000000
N2   N   0.111106639058770   0.055549795216155   0.123324128142722   1.0000000
N2   N   0.611125413964216   0.555584161261273   0.120665772226238   1.0000000
N2   N   0.444438890350077   0.055555950523144   0.122395761765055   1.0000000
N2   N   0.944444049476831   0.555561109650049   0.122395761765055   1.0000000
N2   N   0.777774052382460   0.055553692857751   0.123692616447328   1.0000000
N2   N   0.111106577257504   0.722219955295101   0.626463958743826   1.0000000
N2   N   0.444438890349997   0.722216273160157   0.627604238234806   1.0000000
N2   N   0.277764513638230   0.222205383729090   0.628652041004746   1.0000000
N2   N   0.777794616271341   0.722235486362069   0.628652041004746   1.0000000
N2   N   0.611107536758052   0.222205383729091   0.628652041004789   1.0000000
N2   N   0.944446307142242   0.222225947617949   0.626307383552615   1.0000000
N2   N   0.277780044704802   0.722219955295101   0.123536041256360   1.0000000
N2   N   0.111123052008834   0.222228192670960   0.122877822104603   1.0000000
N2   N   0.444452127479740   0.222237588292345   0.120927367372245   1.0000000
N2   N   0.611107536758052   0.722235486361996   0.121347958994970   1.0000000
N2   N   0.944444049476831   0.722216273160157   0.122395761765055   1.0000000
N2   N   0.777771807328740   0.222228192670960   0.122877822104625   1.0000000
N2   N   0.111113871433540   0.888886128566327   0.626325145491755   1.0000000
N2   N   0.444438923799573   0.888886128566327   0.626325145491755   1.0000000
N2   N   0.277764513638231   0.388892463242564   0.628652041004789   1.0000000
N2   N   0.611125413964216   0.388874586036028   0.629334227773494   1.0000000
N2   N   0.777771807328740   0.888876947991593   0.627122177895383   1.0000000
N2   N   0.944450204783591   0.388890177176070   0.626675871856924   1.0000000
N2   N   0.111106639058770   0.388890177176070   0.123324128142727   1.0000000
N2   N   0.277780044704802   0.888893422742933   0.123536041256358   1.0000000
N2   N   0.611109822824267   0.888893360941645   0.123324128142721   1.0000000
N2   N   0.444415838738913   0.388874586036028   0.120665772226235   1.0000000
N2   N   0.944450204783592   0.888893360941645   0.123324128142722   1.0000000
N2   N   0.777794616271341   0.388892463242564   0.121347958994970   1.0000000
N2   N   0.277783726839911   0.555561109650049   0.627604238234823   1.0000000
N2   N   0.111106639058771   0.055549795216155   0.626675871856924   1.0000000
N2   N   0.611125413964216   0.555584161261273   0.629334227773516   1.0000000
N2   N   0.444438890350077   0.055555950523145   0.627604238234823   1.0000000
N2   N   0.944444049476831   0.555561109650049   0.627604238234806   1.0000000
N2   N   0.111113871433540   0.555561076200541   0.123674854508578   1.0000000
N2   N   0.777774052382460   0.055553692857751   0.626307383552615   1.0000000
N2   N   0.277783726839911   0.055555950523145   0.122395761765055   1.0000000
N2   N   0.444452127479740   0.555547872520622   0.120927367372253   1.0000000
N2   N   0.777762411707177   0.555547872520612   0.120927367372240   1.0000000
N2   N   0.611109822824267   0.055549795216155   0.123324128142722   1.0000000
N2   N   0.444452127479740   0.555547872520622   0.629072632627878   1.0000000
N2   N   0.944446307142242   0.055553692857751   0.123692616447328   1.0000000
N2   N   0.277780044704802   0.722219955295101   0.626463958743826   1.0000000
N2   N   0.111123052008834   0.222228192670960   0.627122177895383   1.0000000
N2   N   0.444452127479740   0.222237588292329   0.629072632627878   1.0000000
N2   N   0.611107536758052   0.722235486362069   0.628652041004789   1.0000000
N2   N   0.944444049476831   0.722216273160157   0.627604238234806   1.0000000
N2   N   0.777771807328740   0.222228192670960   0.627122177895383   1.0000000
N2   N   0.111106577257504   0.722219955295101   0.123536041256360   1.0000000
N2   N   0.444438890349997   0.722216273160157   0.122395761765056   1.0000000
N2   N   0.277764513638230   0.222205383729091   0.121347958994957   1.0000000
N2   N   0.777794616271341   0.722235486361996   0.121347958994970   1.0000000
N2   N   0.611107536758052   0.222205383729091   0.121347958994971   1.0000000
N2   N   0.944446307142242   0.222225947617965   0.123692616447328   1.0000000
N2   N   0.111106639058771   0.388890177176070   0.626675871856924   1.0000000
N2   N   0.277780044704802   0.888893422742933   0.626463958743826   1.0000000
N2   N   0.611109822824267   0.888893360941645   0.626675871856982   1.0000000
N2   N   0.444415838738913   0.388874586036028   0.629334227773494   1.0000000
N2   N   0.944450204783592   0.888893360941645   0.626675871856924   1.0000000
N2   N   0.111113871433540   0.888886128566327   0.123674854508578   1.0000000
N2   N   0.777794616271341   0.388892463242564   0.628652041004789   1.0000000
N2   N   0.444438923799573   0.888886128566327   0.123674854508578   1.0000000
N2   N   0.277764513638230   0.388892463242426   0.121347958994969   1.0000000
N2   N   0.277783726839909   0.555561109650049   0.122395761765055   1.0000000
N2   N   0.611125413964216   0.388874586036028   0.120665772226237   1.0000000
N2   N   0.777771807328740   0.888876947991593   0.122877822104623   1.0000000
N2   N   0.944450204783591   0.388890177176070   0.123324128142721   1.0000000
N2   N   0.111113871433540   0.555561076200541   0.626325145491755   1.0000000
N2   N   0.277783726839936   0.055555950523145   0.627604238234806   1.0000000
N2   N   0.777762411707177   0.555547872520622   0.629072632627878   1.0000000
N2   N   0.611109822824267   0.055549795216155   0.626675871856982   1.0000000
N2   N   0.944446307142242   0.055553692857750   0.626307383552615   1.0000000
N2   N   0.055237904796515   0.110913093649482   0.375000000000000   1.0000000
N2   N   0.556215669674024   0.613591835410661   0.375000000000000   1.0000000
N2   N   0.388885963663470   0.111105260660198   0.375000000000000   1.0000000
N2   N   0.888894739339711   0.611114036336528   0.375000000000000   1.0000000
N2   N   0.722341855519163   0.110913093649481   0.375000000000000   1.0000000
N2   N   0.055563265390432   0.777784419488200   0.875000000000000   1.0000000
N2   N   0.388887820764156   0.777784419488200   0.875000000000000   1.0000000
N2   N   0.222203550460458   0.277768441897162   0.875000000000000   1.0000000
N2   N   0.722231558103351   0.777796449539018   0.875000000000000   1.0000000
N2   N   0.555549023960477   0.277763532368933   0.875000000000000   1.0000000
N2   N   0.888893050712462   0.277772483795824   0.875000000000000   1.0000000
N2   N   0.222222222222221   0.777777777777779   0.375000000000000   1.0000000
N2   N   0.055237904796515   0.277658144480353   0.375000000000000   1.0000000
N2   N   0.386408164588666   0.275957167596707   0.375000000000000   1.0000000
N2   N   0.555582763883402   0.778777274560751   0.375000000000000   1.0000000
N2   N   0.889861177343762   0.778777274560751   0.375000000000000   1.0000000
N2   N   0.722684141714204   0.277315858285595   0.375000000000000   1.0000000
N2   N   0.055558067628536   0.944441932371367   0.875000000000000   1.0000000
N2   N   0.388887820764153   0.944436734609354   0.875000000000000   1.0000000
N2   N   0.222208452402983   0.444445838468680   0.875000000000000   1.0000000
N2   N   0.555555555555557   0.444444444444443   0.875000000000000   1.0000000
N2   N   0.722227516204141   0.944453900250101   0.875000000000000   1.0000000
N2   N   0.888904052732360   0.444445838468680   0.875000000000000   1.0000000
N2   N   0.055565257766986   0.444463848867182   0.375000000000000   1.0000000
N2   N   0.222222391911965   0.944376071551196   0.375000000000000   1.0000000
N2   N   0.555536151132346   0.944434742232935   0.375000000000000   1.0000000
N2   N   0.386408164588636   0.443784330325569   0.375000000000000   1.0000000
N2   N   0.889086906350615   0.944762095203631   0.375000000000000   1.0000000
N2   N   0.724042832403327   0.443784330325569   0.375000000000000   1.0000000
N2   N   0.222215580512146   0.611112179235665   0.875000000000000   1.0000000
N2   N   0.055546099749627   0.111106949287167   0.875000000000000   1.0000000
N2   N   0.555549023960477   0.611118824925161   0.875000000000000   1.0000000
N2   N   0.388883728734566   0.111100790802624   0.875000000000000   1.0000000
N2   N   0.888899209197525   0.611116271265214   0.875000000000000   1.0000000
N2   N   0.055623928448642   0.611179653694418   0.375000000000000   1.0000000
N2   N   0.722227516204141   0.111106949287169   0.875000000000000   1.0000000
N2   N   0.221222725439431   0.110138822656024   0.375000000000000   1.0000000
N2   N   0.388885963663470   0.611114036336528   0.375000000000000   1.0000000
N2   N   0.724042832403327   0.613591835410661   0.375000000000000   1.0000000
N2   N   0.555582763883345   0.110138822656024   0.375000000000000   1.0000000
N2   N   0.388883728734566   0.611116271265214   0.875000000000000   1.0000000
N2   N   0.888888888888886   0.111111111111114   0.375000000000000   1.0000000
N2   N   0.222222222222221   0.777777777777779   0.875000000000000   1.0000000
N2   N   0.055546099749628   0.277772483795824   0.875000000000000   1.0000000
N2   N   0.388881175074645   0.277763532368933   0.875000000000000   1.0000000
N2   N   0.555554161531316   0.777791547597441   0.875000000000000   1.0000000
N2   N   0.888904052732360   0.777791547597441   0.875000000000000   1.0000000
N2   N   0.722231558103351   0.277768441897162   0.875000000000000   1.0000000
N2   N   0.055623928448642   0.777777608087899   0.375000000000000   1.0000000
N2   N   0.388820346306102   0.777777608087899   0.375000000000000   1.0000000
N2   N   0.221298383238180   0.277315858285595   0.375000000000000   1.0000000
N2   N   0.722684141714204   0.778701616762138   0.375000000000000   1.0000000
N2   N   0.556215669674024   0.275957167596707   0.375000000000000   1.0000000
N2   N   0.889086906350615   0.277658144480353   0.375000000000000   1.0000000
N2   N   0.055558067628550   0.444449468590361   0.875000000000000   1.0000000
N2   N   0.222215580512146   0.944436734609354   0.875000000000000   1.0000000
N2   N   0.555550531409637   0.944441932371367   0.875000000000000   1.0000000
N2   N   0.388881175074645   0.444450976039299   0.875000000000000   1.0000000
N2   N   0.888893050712462   0.944453900250101   0.875000000000000   1.0000000
N2   N   0.055565257766987   0.944434742232935   0.375000000000000   1.0000000
N2   N   0.722236467630902   0.444450976039299   0.875000000000000   1.0000000
N2   N   0.388820346306107   0.944376071551196   0.375000000000000   1.0000000
N2   N   0.221222725439431   0.444417236116828   0.375000000000000   1.0000000
N2   N   0.222222391911965   0.611179653694418   0.375000000000000   1.0000000
N2   N   0.722341855519163   0.944762095203631   0.375000000000000   1.0000000
N2   N   0.889861177343762   0.444417236116829   0.375000000000000   1.0000000
N2   N   0.055563265390433   0.611112179235665   0.875000000000000   1.0000000
N2   N   0.222208452402983   0.111095947267568   0.875000000000000   1.0000000
N2   N   0.722236467630902   0.611118824925151   0.875000000000000   1.0000000
N2   N   0.555554161531316   0.111095947267568   0.875000000000000   1.0000000
N2   N   0.888888888888886   0.111111111111114   0.875000000000000   1.0000000
B2   B   0.110312387056406   0.055018324922753   0.375000000000000   1.0000000
B2   B   0.614974783950386   0.563282901234787   0.375000000000000   1.0000000
B2   B   0.444387539514356   0.055014898992044   0.375000000000000   1.0000000
B2   B   0.944985101008274   0.555612460485808   0.375000000000000   1.0000000
B2   B   0.777873353237462   0.055603343285387   0.375000000000000   1.0000000
B2   B   0.111094374175102   0.722213853754064   0.875000000000000   1.0000000
B2   B   0.444411626473773   0.722228080514469   0.875000000000000   1.0000000
B2   B   0.277749770835700   0.222213335300510   0.875000000000000   1.0000000
B2   B   0.777786664699225   0.722250229164247   0.875000000000000   1.0000000
B2   B   0.611130231131631   0.222213335300510   0.875000000000000   1.0000000
B2   B   0.944458178400364   0.222249690133271   0.875000000000000   1.0000000
B2   B   0.277777687168853   0.722222312831057   0.375000000000000   1.0000000
B2   B   0.110047809414762   0.221690571374025   0.375000000000000   1.0000000
B2   B   0.443985250666962   0.221303834667471   0.375000000000000   1.0000000
B2   B   0.611805374606866   0.724742750794559   0.375000000000000   1.0000000
B2   B   0.944985101008274   0.722705973855401   0.375000000000000   1.0000000
B2   B   0.778309428625971   0.221690571374025   0.375000000000000   1.0000000
B2   B   0.111114092560080   0.888885907439794   0.875000000000000   1.0000000
B2   B   0.444438481546538   0.888885907439794   0.875000000000000   1.0000000
B2   B   0.277749770835700   0.388869768868268   0.875000000000000   1.0000000
B2   B   0.611150371279670   0.388849628720329   0.875000000000000   1.0000000
B2   B   0.777789010115229   0.888911353564140   0.875000000000000   1.0000000
B2   B   0.944472262716487   0.388880690098484   0.875000000000000   1.0000000
B2   B   0.110312387056406   0.388627395466837   0.375000000000000   1.0000000
B2   B   0.277777687168854   0.888888707671036   0.375000000000000   1.0000000
B2   B   0.611372604532988   0.889687612943704   0.375000000000000   1.0000000
B2   B   0.436717098765694   0.385025216049267   0.375000000000000   1.0000000
B2   B   0.944981675077358   0.889687612943704   0.375000000000000   1.0000000
B2   B   0.779604042854295   0.388194625393580   0.375000000000000   1.0000000
B2   B   0.277771919485612   0.555588373526289   0.875000000000000   1.0000000
B2   B   0.111075094048364   0.055527737283214   0.875000000000000   1.0000000
B2   B   0.611150371279670   0.555634075892671   0.875000000000000   1.0000000
B2   B   0.444411626473773   0.055516879292357   0.875000000000000   1.0000000
B2   B   0.944483120707653   0.555588373526289   0.875000000000000   1.0000000
B2   B   0.111107120336986   0.555547574007530   0.375000000000000   1.0000000
B2   B   0.777750309866565   0.055541821600030   0.875000000000000   1.0000000
B2   B   0.277294026144491   0.055014898992044   0.375000000000000   1.0000000
B2   B   0.443985250666962   0.556014749333093   0.375000000000000   1.0000000
B2   B   0.778696165332710   0.556014749333093   0.375000000000000   1.0000000
B2   B   0.611372604532988   0.055018324922753   0.375000000000000   1.0000000
B2   B   0.444427556187879   0.555572443812331   0.875000000000000   1.0000000
B2   B   0.944396656714505   0.055603343285385   0.375000000000000   1.0000000
B2   B   0.277786146245828   0.722213853754064   0.875000000000000   1.0000000
B2   B   0.111088646436026   0.222210989884688   0.875000000000000   1.0000000
B2   B   0.444427556187879   0.222188445709038   0.875000000000000   1.0000000
B2   B   0.611130231131417   0.722250229164247   0.875000000000000   1.0000000
B2   B   0.944483120707653   0.722228080514469   0.875000000000000   1.0000000
B2   B   0.777789010115225   0.222210989884688   0.875000000000000   1.0000000
B2   B   0.111111292328423   0.722222312831057   0.375000000000000   1.0000000
B2   B   0.444387539514356   0.722705973855401   0.375000000000000   1.0000000
B2   B   0.275257249205486   0.220395957145563   0.375000000000000   1.0000000
B2   B   0.779604042854295   0.724742750794559   0.375000000000000   1.0000000
B2   B   0.611805374606866   0.220395957145563   0.375000000000000   1.0000000
B2   B   0.944396656714505   0.222126646762429   0.375000000000000   1.0000000
B2   B   0.111075094048354   0.388880690098614   0.875000000000000   1.0000000
B2   B   0.277786146245828   0.888905625824985   0.875000000000000   1.0000000
B2   B   0.611119309901073   0.888924905951811   0.875000000000000   1.0000000
B2   B   0.444365924107265   0.388849628720329   0.875000000000000   1.0000000
B2   B   0.944472262716519   0.888924905951811   0.875000000000000   1.0000000
B2   B   0.111107120336985   0.888892879662803   0.375000000000000   1.0000000
B2   B   0.777786664699225   0.388869768868265   0.875000000000000   1.0000000
B2   B   0.444452425992804   0.888892879662803   0.375000000000000   1.0000000
B2   B   0.275257249205486   0.388194625393580   0.375000000000000   1.0000000
B2   B   0.277294026144491   0.555612460485808   0.375000000000000   1.0000000
B2   B   0.614974783950386   0.385025216049267   0.375000000000000   1.0000000
B2   B   0.778309428625971   0.889952190585384   0.375000000000000   1.0000000
B2   B   0.944981675077358   0.388627395466837   0.375000000000000   1.0000000
B2   B   0.111114092560080   0.555561518453611   0.875000000000000   1.0000000
B2   B   0.277771919485612   0.055516879292357   0.875000000000000   1.0000000
B2   B   0.777811554290899   0.555572443812331   0.875000000000000   1.0000000
B2   B   0.611119309901073   0.055527737283214   0.875000000000000   1.0000000
B2   B   0.944458178400364   0.055541821600030   0.875000000000000   1.0000000
B2   B   0.055513613435614   0.111044182285578   0.123248465695494   1.0000000
B2   B   0.555611224951921   0.611258302577941   0.120554104125199   1.0000000
B2   B   0.388804865061467   0.110943063456293   0.121641395711018   1.0000000
B2   B   0.889056936543731   0.611195134938792   0.121641395711005   1.0000000
B2   B   0.722197235516840   0.111044182285578   0.123248465695494   1.0000000
B2   B   0.055578572669368   0.777755820468209   0.626809170225466   1.0000000
B2   B   0.388843914465696   0.777755820468209   0.626809170225466   1.0000000
B2   B   0.222192618780715   0.277762976057082   0.628385807639251   1.0000000
B2   B   0.722237023943057   0.777807381219179   0.628385807639251   1.0000000
B2   B   0.555611224951921   0.277686255707919   0.629445895874809   1.0000000
B2   B   0.888955817714335   0.277802764483275   0.626751534304833   1.0000000
B2   B   0.222222222222221   0.777777777777779   0.123590319689181   1.0000000
B2   B   0.055513613435615   0.277802764483275   0.123248465695494   1.0000000
B2   B   0.388741697421896   0.277686255707919   0.120554104125199   1.0000000
B2   B   0.555553185263914   0.777842142044482   0.122221758228051   1.0000000
B2   B   0.888955623447024   0.777842142044482   0.122221758228050   1.0000000
B2   B   0.722237023943057   0.277762976057097   0.121614192360514   1.0000000
B2   B   0.055534764130326   0.944465235869610   0.626539960105608   1.0000000
B2   B   0.388843914465696   0.944421427330691   0.626809170225466   1.0000000
B2   B   0.222157857955564   0.444446814736154   0.627778241771748   1.0000000
B2   B   0.555555555555557   0.444444444444443   0.630062598660076   1.0000000
B2   B   0.722197235516840   0.944486386564535   0.626751534304833   1.0000000
B2   B   0.888955623447024   0.444446814736154   0.627778241771751   1.0000000
B2   B   0.055534764130313   0.444402861593915   0.123460039894320   1.0000000
B2   B   0.222244179531676   0.944421427330692   0.123190829774279   1.0000000
B2   B   0.555597138405851   0.944465235869610   0.123460039894320   1.0000000
B2   B   0.388741697421896   0.444388775047367   0.120554104125202   1.0000000
B2   B   0.888955817714335   0.944486386564535   0.123248465695494   1.0000000
B2   B   0.722313744292056   0.444388775047368   0.120554104125199   1.0000000
B2   B   0.222244179531676   0.611156085534143   0.626809170225466   1.0000000
B2   B   0.055513613435615   0.111044182285578   0.626751534304833   1.0000000
B2   B   0.555611224951921   0.611258302577941   0.629445895874807   1.0000000
B2   B   0.388804865061467   0.110943063456293   0.628358604289084   1.0000000
B2   B   0.889056936543731   0.611195134938792   0.628358604289084   1.0000000
B2   B   0.055578572669368   0.611156085534143   0.123190829774275   1.0000000
B2   B   0.722197235516840   0.111044182285578   0.626751534304833   1.0000000
B2   B   0.222157857955564   0.111044376552864   0.122221758228050   1.0000000
B2   B   0.388804865061467   0.611195134938792   0.121641395710999   1.0000000
B2   B   0.722313744292074   0.611258302577941   0.120554104125201   1.0000000
B2   B   0.555553185263920   0.111044376552886   0.122221758228050   1.0000000
B2   B   0.388804865061467   0.611195134938792   0.628358604289084   1.0000000
B2   B   0.888888888888886   0.111111111111114   0.123615743741864   1.0000000
B2   B   0.222222222222221   0.777777777777779   0.626409680310931   1.0000000
B2   B   0.055513613435615   0.277802764483275   0.626751534304833   1.0000000
B2   B   0.388741697421896   0.277686255707919   0.629445895874806   1.0000000
B2   B   0.555553185263914   0.777842142044482   0.627778241771748   1.0000000
B2   B   0.888955623447024   0.777842142044482   0.627778241771748   1.0000000
B2   B   0.722237023943057   0.277762976057082   0.628385807639251   1.0000000
B2   B   0.055578572669368   0.777755820468209   0.123190829774278   1.0000000
B2   B   0.388843914465696   0.777755820468209   0.123190829774278   1.0000000
B2   B   0.222192618780715   0.277762976057097   0.121614192360514   1.0000000
B2   B   0.722237023943057   0.777807381219179   0.121614192360515   1.0000000
B2   B   0.555611224951921   0.277686255707919   0.120554104125199   1.0000000
B2   B   0.888955817714335   0.277802764483275   0.123248465695494   1.0000000
B2   B   0.055534764130323   0.444402861593915   0.626539960105608   1.0000000
B2   B   0.222244179531676   0.944421427330691   0.626809170225466   1.0000000
B2   B   0.555597138405851   0.944465235869610   0.626539960105608   1.0000000
B2   B   0.388741697421896   0.444388775047368   0.629445895874806   1.0000000
B2   B   0.888955817714335   0.944486386564535   0.626751534304833   1.0000000
B2   B   0.055534764130326   0.944465235869610   0.123460039894320   1.0000000
B2   B   0.722313744292056   0.444388775047367   0.629445895874810   1.0000000
B2   B   0.388843914465696   0.944421427330692   0.123190829774279   1.0000000
B2   B   0.222157857955564   0.444446814736154   0.122221758228050   1.0000000
B2   B   0.222244179531676   0.611156085534143   0.123190829774274   1.0000000
B2   B   0.555555555555557   0.444444444444443   0.119937401340340   1.0000000
B2   B   0.722197235516840   0.944486386564535   0.123248465695494   1.0000000
B2   B   0.888955623447024   0.444446814736154   0.122221758228051   1.0000000
B2   B   0.055578572669367   0.611156085534143   0.626809170225466   1.0000000
B2   B   0.222157857955564   0.111044376552890   0.627778241771748   1.0000000
B2   B   0.722313744292056   0.611258302577941   0.629445895874917   1.0000000
B2   B   0.555553185263914   0.111044376552886   0.627778241771748   1.0000000
B2   B   0.888888888888886   0.111111111111114   0.626384256258697   1.0000000


