data_1
_audit_creation_method   'vasp2cif'
_cell_length_a    14.93631414619966
_cell_length_b    14.936314146199727
_cell_length_c    13.341276283792837
_cell_angle_alpha    90.0
_cell_angle_beta    90.0
_cell_angle_gamma    119.99999999999984

_symmetry_space_group_name_H-M    'P 1'
loop_
_atom_site_label
_atom_site_type_symbol
_atom_site_fract_x
_atom_site_fract_y
_atom_site_fract_z
_atom_site_occupancy
C2   C   0.387555029042255   0.438453143034350   0.375000000000000   1.0000000
C2   C   0.429748397098598   0.378379386553853   0.375000000000000   1.0000000
N2   N   0.111091281750666   0.055548471227382   0.125055795866590   1.0000000
N2   N   0.611114280786762   0.555510811218073   0.124909095154771   1.0000000
N2   N   0.444435824968997   0.055548441418484   0.125076248482124   1.0000000
N2   N   0.944461700201976   0.555553792746919   0.125043629068545   1.0000000
N2   N   0.777741610044856   0.055539932552794   0.125030182914659   1.0000000
N2   N   0.111120286185262   0.722215192485091   0.624981308419749   1.0000000
N2   N   0.444438375252815   0.722181530490696   0.624965586166351   1.0000000
N2   N   0.277765634045797   0.222209162776433   0.625089213197433   1.0000000
N2   N   0.777773865867350   0.722202319715538   0.624929853344047   1.0000000
N2   N   0.611096209846095   0.222227567014469   0.624872882254514   1.0000000
N2   N   0.944411839538099   0.222207157580870   0.624986721186851   1.0000000
N2   N   0.277782369850448   0.722200379686705   0.125005886636689   1.0000000
N2   N   0.111085988211696   0.222204466643374   0.125004764427526   1.0000000
N2   N   0.444447708091355   0.222217927636957   0.125032575256501   1.0000000
N2   N   0.611091166363574   0.722171912844866   0.125087170384653   1.0000000
N2   N   0.944454414048488   0.722222912961347   0.125047374732082   1.0000000
N2   N   0.777751674795673   0.222220511769443   0.125050621862060   1.0000000
N2   N   0.111110992557762   0.888890020027466   0.624965235516522   1.0000000
N2   N   0.444434302661691   0.888870511814666   0.624996111271829   1.0000000
N2   N   0.277762821513123   0.388856664241082   0.625466959833470   1.0000000
N2   N   0.611122594896391   0.388900205376816   0.625114457457317   1.0000000
N2   N   0.777750777914317   0.888863307832075   0.624961400995984   1.0000000
N2   N   0.944440420011717   0.388882055280306   0.624983333258712   1.0000000
N2   N   0.111096955786972   0.388866099051633   0.124980702203261   1.0000000
N2   N   0.277778785540600   0.888881703607141   0.125014183545258   1.0000000
N2   N   0.611086143359703   0.888863300370760   0.125015134329722   1.0000000
N2   N   0.444459540726393   0.388823860121602   0.123698441772677   1.0000000
N2   N   0.944433303771061   0.888884819403217   0.125019385773467   1.0000000
N2   N   0.777785269416356   0.388896810956595   0.125074426569463   1.0000000
N2   N   0.277785765582122   0.555522187819771   0.624981201058034   1.0000000
N2   N   0.111091281750666   0.055548471227382   0.624944204133410   1.0000000
N2   N   0.611114280786762   0.555510811218073   0.625090904845228   1.0000000
N2   N   0.444435824968997   0.055548441418484   0.624923751517876   1.0000000
N2   N   0.944461700201976   0.555553792746919   0.624956370931454   1.0000000
N2   N   0.111120651375272   0.555540379668067   0.125019227317718   1.0000000
N2   N   0.777741610044856   0.055539932552794   0.624969817085341   1.0000000
N2   N   0.277774272876180   0.055555367558952   0.125072109981380   1.0000000
N2   N   0.444455581882731   0.555507233125501   0.124842374533253   1.0000000
N2   N   0.777796978949353   0.555555229641741   0.125125179380380   1.0000000
N2   N   0.611084842011658   0.055546841290838   0.125032160318165   1.0000000
N2   N   0.444455581882731   0.555507233125501   0.625157625466746   1.0000000
N2   N   0.944413823916017   0.055540376515604   0.125020168878958   1.0000000
N2   N   0.277782369850448   0.722200379686705   0.624994113363312   1.0000000
N2   N   0.111085988211696   0.222204466643374   0.624995235572474   1.0000000
N2   N   0.444447708091355   0.222217927636957   0.624967424743500   1.0000000
N2   N   0.611091166363574   0.722171912844866   0.624912829615346   1.0000000
N2   N   0.944454414048488   0.722222912961347   0.624952625267919   1.0000000
N2   N   0.777751674795673   0.222220511769443   0.624949378137940   1.0000000
N2   N   0.111120286185262   0.722215192485091   0.125018691580251   1.0000000
N2   N   0.444438375252815   0.722181530490696   0.125034413833650   1.0000000
N2   N   0.277765634045797   0.222209162776433   0.124910786802567   1.0000000
N2   N   0.777773865867350   0.722202319715538   0.125070146655952   1.0000000
N2   N   0.611096209846095   0.222227567014469   0.125127117745487   1.0000000
N2   N   0.944411839538099   0.222207157580870   0.125013278813148   1.0000000
N2   N   0.111096955786972   0.388866099051633   0.625019297796739   1.0000000
N2   N   0.277778785540600   0.888881703607141   0.624985816454742   1.0000000
N2   N   0.611086143359703   0.888863300370760   0.624984865670278   1.0000000
N2   N   0.444459540726393   0.388823860121602   0.626301558227324   1.0000000
N2   N   0.944433303771061   0.888884819403217   0.624980614226533   1.0000000
N2   N   0.111110992557762   0.888890020027466   0.125034764483478   1.0000000
N2   N   0.777785269416356   0.388896810956595   0.624925573430538   1.0000000
N2   N   0.444434302661691   0.888870511814666   0.125003888728171   1.0000000
N2   N   0.277762821513123   0.388856664241082   0.124533040166530   1.0000000
N2   N   0.277785765582122   0.555522187819771   0.125018798941965   1.0000000
N2   N   0.611122594896391   0.388900205376816   0.124885542542682   1.0000000
N2   N   0.777750777914317   0.888863307832075   0.125038599004016   1.0000000
N2   N   0.944440420011717   0.388882055280306   0.125016666741289   1.0000000
N2   N   0.111120651375272   0.555540379668067   0.624980772682283   1.0000000
N2   N   0.277774272876180   0.055555367558952   0.624927890018619   1.0000000
N2   N   0.777796978949353   0.555555229641741   0.624874820619621   1.0000000
N2   N   0.611084842011658   0.055546841290838   0.624967839681835   1.0000000
N2   N   0.944413823916017   0.055540376515604   0.624979831121041   1.0000000
N2   N   0.052430880368883   0.108828773123928   0.375000000000000   1.0000000
N2   N   0.559980027325716   0.605069210633408   0.375000000000000   1.0000000
N2   N   0.389729633502133   0.114113973441835   0.375000000000000   1.0000000
N2   N   0.893099999200812   0.613212069295295   0.375000000000000   1.0000000
N2   N   0.721124869255845   0.112018955088902   0.375000000000000   1.0000000
N2   N   0.055553550319339   0.777774441799988   0.875000000000000   1.0000000
N2   N   0.388888587746645   0.777777192979567   0.875000000000000   1.0000000
N2   N   0.222220410762001   0.277772597581627   0.875000000000000   1.0000000
N2   N   0.722222575422012   0.777775207288929   0.875000000000000   1.0000000
N2   N   0.555554197838717   0.277774498395909   0.875000000000000   1.0000000
N2   N   0.888889703399383   0.277777164662994   0.875000000000000   1.0000000
N2   N   0.224491642656619   0.778499528452137   0.375000000000000   1.0000000
N2   N   0.052598737104430   0.276566777691076   0.375000000000000   1.0000000
N2   N   0.382949175392586   0.275021325506086   0.375000000000000   1.0000000
N2   N   0.556866021382153   0.775386172701298   0.375000000000000   1.0000000
N2   N   0.890573270227943   0.778160980019837   0.375000000000000   1.0000000
N2   N   0.721353982971395   0.280245129170317   0.375000000000000   1.0000000
N2   N   0.055552875473136   0.944441023051681   0.875000000000000   1.0000000
N2   N   0.388888557396698   0.944442399525019   0.875000000000000   1.0000000
N2   N   0.222219508442894   0.444443355232511   0.875000000000000   1.0000000
N2   N   0.555559697072499   0.444447062451292   0.875000000000000   1.0000000
N2   N   0.722222017241478   0.944441253480950   0.875000000000000   1.0000000
N2   N   0.888890986030864   0.444444185873475   0.875000000000000   1.0000000
N2   N   0.054978426082889   0.444480896639252   0.375000000000000   1.0000000
N2   N   0.223653835832760   0.945404899461975   0.375000000000000   1.0000000
N2   N   0.556072241312773   0.945277072849105   0.375000000000000   1.0000000
N2   N   0.887847157993892   0.943398289405831   0.375000000000000   1.0000000
N2   N   0.724460563676602   0.448112756779782   0.375000000000000   1.0000000
N2   N   0.222218768280380   0.611107730320102   0.875000000000000   1.0000000
N2   N   0.055553535298511   0.111104432552484   0.875000000000000   1.0000000
N2   N   0.555555894666736   0.611108798249016   0.875000000000000   1.0000000
N2   N   0.388886885387840   0.111105383762945   0.875000000000000   1.0000000
N2   N   0.888889300596075   0.611108355075256   0.875000000000000   1.0000000
N2   N   0.058117917251882   0.611949361946040   0.375000000000000   1.0000000
N2   N   0.722219409989593   0.111106865284144   0.875000000000000   1.0000000
N2   N   0.219647896974284   0.108995721147553   0.375000000000000   1.0000000
N2   N   0.391465498493472   0.609855073265893   0.375000000000000   1.0000000
N2   N   0.726306584986033   0.611973619774550   0.375000000000000   1.0000000
N2   N   0.555843792008900   0.115696688692619   0.375000000000000   1.0000000
N2   N   0.388888996160416   0.611108952668204   0.875000000000000   1.0000000
N2   N   0.886808344909309   0.110386051395187   0.375000000000000   1.0000000
N2   N   0.222219935099989   0.777774418845818   0.875000000000000   1.0000000
N2   N   0.055555166098020   0.277774336413023   0.875000000000000   1.0000000
N2   N   0.388886281346785   0.277770956093056   0.875000000000000   1.0000000
N2   N   0.555555048871641   0.777775589895075   0.875000000000000   1.0000000
N2   N   0.888890312082528   0.777777563679616   0.875000000000000   1.0000000
N2   N   0.722220985175905   0.277775446962252   0.875000000000000   1.0000000
N2   N   0.058092362343356   0.778898324561055   0.375000000000000   1.0000000
N2   N   0.390734282391823   0.777865429418977   0.375000000000000   1.0000000
N2   N   0.216277684785491   0.273594658204722   0.375000000000000   1.0000000
N2   N   0.723236638645904   0.776922118227177   0.375000000000000   1.0000000
N2   N   0.556100529940044   0.289088130307503   0.375000000000000   1.0000000
N2   N   0.887188474097205   0.278055316331664   0.375000000000000   1.0000000
N2   N   0.055553447999797   0.444443847336846   0.875000000000000   1.0000000
N2   N   0.222219290776623   0.944439712087477   0.875000000000000   1.0000000
N2   N   0.555553089468802   0.944442487897921   0.875000000000000   1.0000000
N2   N   0.388889691364678   0.444446765141067   0.875000000000000   1.0000000
N2   N   0.888890674886797   0.944442000520139   0.875000000000000   1.0000000
N2   N   0.055242461591883   0.943677385910326   0.375000000000000   1.0000000
N2   N   0.722224026882138   0.444444259423304   0.875000000000000   1.0000000
N2   N   0.390377456270099   0.946201282768850   0.375000000000000   1.0000000
N2   N   0.219743347092041   0.442768971142765   0.375000000000000   1.0000000
N2   N   0.224270167521415   0.610830041285901   0.375000000000000   1.0000000
N2   N   0.721585351298570   0.943912879596948   0.375000000000000   1.0000000
N2   N   0.889563472891693   0.445660638463429   0.375000000000000   1.0000000
N2   N   0.055552822290167   0.611106773718617   0.875000000000000   1.0000000
N2   N   0.222216982045861   0.111103295865509   0.875000000000000   1.0000000
N2   N   0.722222787464555   0.611109777116510   0.875000000000000   1.0000000
N2   N   0.555552144371663   0.111105642561842   0.875000000000000   1.0000000
N2   N   0.888889769669828   0.111106548740008   0.875000000000000   1.0000000
B2   B   0.108821823161130   0.053987790687415   0.375000000000000   1.0000000
B2   B   0.616742398956376   0.547387271810876   0.375000000000000   1.0000000
B2   B   0.445017882117015   0.057899266246693   0.375000000000000   1.0000000
B2   B   0.947319681318700   0.556694366195610   0.375000000000000   1.0000000
B2   B   0.776010016328207   0.055260175258247   0.375000000000000   1.0000000
B2   B   0.111112123245015   0.722215947472631   0.875000000000000   1.0000000
B2   B   0.444438967125982   0.722204993103711   0.875000000000000   1.0000000
B2   B   0.277780464103402   0.222232958479750   0.875000000000000   1.0000000
B2   B   0.777768566569228   0.722215262568140   0.875000000000000   1.0000000
B2   B   0.611104789812151   0.222221665035325   0.875000000000000   1.0000000
B2   B   0.944455270921364   0.222224159648483   0.875000000000000   1.0000000
B2   B   0.279698676180069   0.722187719542522   0.375000000000000   1.0000000
B2   B   0.106217360706963   0.219336336140574   0.375000000000000   1.0000000
B2   B   0.444750966773043   0.225600454482727   0.375000000000000   1.0000000
B2   B   0.612584547930133   0.718106245616730   0.375000000000000   1.0000000
B2   B   0.947423136322652   0.723927667100774   0.375000000000000   1.0000000
B2   B   0.776169396089477   0.223234083535490   0.375000000000000   1.0000000
B2   B   0.111108182329706   0.888886147923040   0.875000000000000   1.0000000
B2   B   0.444440461358278   0.888876089821203   0.875000000000000   1.0000000
B2   B   0.277793814451803   0.388900905152380   0.875000000000000   1.0000000
B2   B   0.611101678967591   0.388896113079446   0.875000000000000   1.0000000
B2   B   0.777772737814131   0.888879158791219   0.875000000000000   1.0000000
B2   B   0.944454765462943   0.388891619744884   0.875000000000000   1.0000000
B2   B   0.109189163847038   0.387997741132075   0.375000000000000   1.0000000
B2   B   0.279368723714477   0.889796960630504   0.375000000000000   1.0000000
B2   B   0.610784683312734   0.887591863457218   0.375000000000000   1.0000000
B2   B   0.944444798797585   0.888687136783309   0.375000000000000   1.0000000
B2   B   0.778429031109981   0.390947757790097   0.375000000000000   1.0000000
B2   B   0.277784714801915   0.555547819365132   0.875000000000000   1.0000000
B2   B   0.111110968678006   0.055556889720923   0.875000000000000   1.0000000
B2   B   0.611095951364973   0.555551729030995   0.875000000000000   1.0000000
B2   B   0.444439419943418   0.055549308950419   0.875000000000000   1.0000000
B2   B   0.944448202822398   0.555554515619251   0.875000000000000   1.0000000
B2   B   0.112956154269627   0.555699929288266   0.375000000000000   1.0000000
B2   B   0.777778171250556   0.055548332045853   0.875000000000000   1.0000000
B2   B   0.278023950921744   0.056388112223975   0.375000000000000   1.0000000
B2   B   0.448537221004602   0.554471158430474   0.375000000000000   1.0000000
B2   B   0.783425769571343   0.558721634798278   0.375000000000000   1.0000000
B2   B   0.610370028132961   0.057534443824899   0.375000000000000   1.0000000
B2   B   0.444436519254855   0.555541421479807   0.875000000000000   1.0000000
B2   B   0.941881686517818   0.054133077810445   0.375000000000000   1.0000000
B2   B   0.277779164411898   0.722210625595017   0.875000000000000   1.0000000
B2   B   0.111123033178382   0.222229339902576   0.875000000000000   1.0000000
B2   B   0.444436929146097   0.222229511037583   0.875000000000000   1.0000000
B2   B   0.611097556983735   0.722204819545484   0.875000000000000   1.0000000
B2   B   0.944441872915263   0.722220252712858   0.875000000000000   1.0000000
B2   B   0.777780917717370   0.222220411958626   0.875000000000000   1.0000000
B2   B   0.113528222228953   0.723078744407818   0.375000000000000   1.0000000
B2   B   0.445799878187946   0.721027558950822   0.375000000000000   1.0000000
B2   B   0.271312830692593   0.218709899995357   0.375000000000000   1.0000000
B2   B   0.779793889460050   0.722806191986709   0.375000000000000   1.0000000
B2   B   0.610447833854156   0.228721303138672   0.375000000000000   1.0000000
B2   B   0.941894927154512   0.221577933424059   0.375000000000000   1.0000000
B2   B   0.111126056277731   0.388893953115004   0.875000000000000   1.0000000
B2   B   0.277775922328486   0.888881036914667   0.875000000000000   1.0000000
B2   B   0.611104261171392   0.888875265497195   0.875000000000000   1.0000000
B2   B   0.444435651412939   0.388901270075111   0.875000000000000   1.0000000
B2   B   0.944441880544502   0.888886423368379   0.875000000000000   1.0000000
B2   B   0.112513405341544   0.889689790784361   0.375000000000000   1.0000000
B2   B   0.777778476543078   0.388892360352057   0.875000000000000   1.0000000
B2   B   0.445295893930428   0.889421804087716   0.375000000000000   1.0000000
B2   B   0.271664443294647   0.384100101195119   0.375000000000000   1.0000000
B2   B   0.279368080730960   0.554181783759491   0.375000000000000   1.0000000
B2   B   0.614463937022716   0.404837030604772   0.375000000000000   1.0000000
B2   B   0.777077546743819   0.888053378802621   0.375000000000000   1.0000000
B2   B   0.944019172502812   0.389276223262543   0.375000000000000   1.0000000
B2   B   0.111119221034022   0.555552116081632   0.875000000000000   1.0000000
B2   B   0.277772777798432   0.055554722168698   0.875000000000000   1.0000000
B2   B   0.777770442883795   0.555556198012677   0.875000000000000   1.0000000
B2   B   0.611106296086359   0.055545836899185   0.875000000000000   1.0000000
B2   B   0.944448400612867   0.055553932013911   0.875000000000000   1.0000000
B2   B   0.055538382389319   0.111123287929120   0.124998733916378   1.0000000
B2   B   0.555480722204381   0.611016146198270   0.125049595421454   1.0000000
B2   B   0.388889511457605   0.111112851159745   0.125002716903056   1.0000000
B2   B   0.888906583028640   0.611108153985598   0.125005525858800   1.0000000
B2   B   0.722195287365442   0.111097787199309   0.125006832070167   1.0000000
B2   B   0.055571710834295   0.777772236118316   0.625004515279192   1.0000000
B2   B   0.388897980137206   0.777724547659397   0.624974182598623   1.0000000
B2   B   0.222243176672668   0.277841995124931   0.625180955003998   1.0000000
B2   B   0.722165835262283   0.777725999095801   0.624960600118215   1.0000000
B2   B   0.555556114883689   0.277808924987449   0.625028027056618   1.0000000
B2   B   0.888883945467806   0.277776816070639   0.624999436351945   1.0000000
B2   B   0.222244529732899   0.777749803993873   0.124996847795351   1.0000000
B2   B   0.055553551646487   0.277784864313830   0.124995877965459   1.0000000
B2   B   0.388919153039880   0.277871353165238   0.124431136157947   1.0000000
B2   B   0.555524254781560   0.777711852345751   0.125066911069286   1.0000000
B2   B   0.888868048390555   0.777764360353681   0.125004874745305   1.0000000
B2   B   0.722215060374314   0.277785071639492   0.125020486761974   1.0000000
B2   B   0.055543967657235   0.944445370943153   0.624999675585757   1.0000000
B2   B   0.388889861558676   0.944416978524703   0.624993673583152   1.0000000
B2   B   0.222266853014575   0.444405211541063   0.625042528041777   1.0000000
B2   B   0.555445520143886   0.444393443241853   0.625420095320649   1.0000000
B2   B   0.722180159996205   0.944411220173485   0.624990131777592   1.0000000
B2   B   0.888904756234712   0.444440128826153   0.624993050047873   1.0000000
B2   B   0.055581201199083   0.444427480085416   0.125012958906105   1.0000000
B2   B   0.222226248100609   0.944436040931192   0.125001453894581   1.0000000
B2   B   0.555535706759717   0.944410710308074   0.125004839484258   1.0000000
B2   B   0.388909345130652   0.444381758894454   0.124913115099118   1.0000000
B2   B   0.888856807309338   0.944430472556447   0.124995870827145   1.0000000
B2   B   0.722212759076574   0.444445956648748   0.124996155719535   1.0000000
B2   B   0.222260921325757   0.611065741675130   0.624962049962758   1.0000000
B2   B   0.055538382389319   0.111123287929120   0.625001266083622   1.0000000
B2   B   0.555480722204381   0.611016146198270   0.624950404578545   1.0000000
B2   B   0.388889511457605   0.111112851159745   0.624997283096944   1.0000000
B2   B   0.888906583028640   0.611108153985598   0.624994474141199   1.0000000
B2   B   0.055591200742539   0.611095365071419   0.125001568742108   1.0000000
B2   B   0.722195287365442   0.111097787199309   0.624993167929832   1.0000000
B2   B   0.222218353987687   0.111140102117511   0.124982150067098   1.0000000
B2   B   0.388907043412382   0.611022832297162   0.125069494078524   1.0000000
B2   B   0.722173394848787   0.611073354392751   0.125018699993287   1.0000000
B2   B   0.555546428199618   0.111106619838653   0.125037025563039   1.0000000
B2   B   0.388907043412382   0.611022832297162   0.624930505921476   1.0000000
B2   B   0.888861862808056   0.111104771749643   0.124997796651311   1.0000000
B2   B   0.222244529732899   0.777749803993873   0.625003152204649   1.0000000
B2   B   0.055553551646487   0.277784864313830   0.625004122034542   1.0000000
B2   B   0.388919153039880   0.277871353165238   0.625568863842053   1.0000000
B2   B   0.555524254781560   0.777711852345751   0.624933088930712   1.0000000
B2   B   0.888868048390555   0.777764360353681   0.624995125254695   1.0000000
B2   B   0.722215060374314   0.277785071639492   0.624979513238027   1.0000000
B2   B   0.055571710834295   0.777772236118316   0.124995484720807   1.0000000
B2   B   0.388897980137206   0.777724547659397   0.125025817401376   1.0000000
B2   B   0.222243176672668   0.277841995124931   0.124819044996002   1.0000000
B2   B   0.722165835262283   0.777725999095801   0.125039399881786   1.0000000
B2   B   0.555556114883689   0.277808924987449   0.124971972943382   1.0000000
B2   B   0.888883945467806   0.277776816070639   0.125000563648055   1.0000000
B2   B   0.055581201199083   0.444427480085416   0.624987041093895   1.0000000
B2   B   0.222226248100609   0.944436040931192   0.624998546105419   1.0000000
B2   B   0.555535706759717   0.944410710308074   0.624995160515743   1.0000000
B2   B   0.388909345130652   0.444381758894454   0.625086884900882   1.0000000
B2   B   0.888856807309338   0.944430472556447   0.625004129172856   1.0000000
B2   B   0.055543967657235   0.944445370943153   0.125000324414243   1.0000000
B2   B   0.722212759076574   0.444445956648748   0.625003844280464   1.0000000
B2   B   0.388889861558676   0.944416978524703   0.125006326416849   1.0000000
B2   B   0.222266853014575   0.444405211541063   0.124957471958221   1.0000000
B2   B   0.222260921325757   0.611065741675130   0.125037950037243   1.0000000
B2   B   0.555445520143886   0.444393443241853   0.124579904679350   1.0000000
B2   B   0.722180159996205   0.944411220173485   0.125009868222408   1.0000000
B2   B   0.888904756234712   0.444440128826153   0.125006949952127   1.0000000
B2   B   0.055591200742539   0.611095365071419   0.624998431257892   1.0000000
B2   B   0.222218353987687   0.111140102117511   0.625017849932902   1.0000000
B2   B   0.722173394848787   0.611073354392751   0.624981300006713   1.0000000
B2   B   0.555546428199618   0.111106619838653   0.624962974436961   1.0000000
B2   B   0.888861862808056   0.111104771749643   0.625002203348689   1.0000000


