data_1
_audit_creation_method   'vasp2cif'
_cell_length_a    17.52789999999977
_cell_length_b    17.52789999999977
_cell_length_c    15.0
_cell_angle_alpha    90.0
_cell_angle_beta    90.0
_cell_angle_gamma    119.99999999999916

_symmetry_space_group_name_H-M    'P 1'
loop_
_atom_site_label
_atom_site_type_symbol
_atom_site_fract_x
_atom_site_fract_y
_atom_site_fract_z
_atom_site_occupancy
B2   B   0.905028221241582   0.952605917936187   0.112802998025458   1.0000000
B2   B   0.904689448830016   0.095311918976184   0.113107679318923   1.0000000
B2   B   0.904637143228838   0.238134151283936   0.113463122889217   1.0000000
B2   B   0.904660086384691   0.380949978761596   0.113825662799174   1.0000000
B2   B   0.904778204885587   0.523789811528713   0.113461176155950   1.0000000
B2   B   0.905229118875162   0.666767047267921   0.111648143083905   1.0000000
B2   B   0.905161045691020   0.809767941298787   0.111885728495230   1.0000000
B2   B   0.047689719806667   0.952312008069746   0.113263015185929   1.0000000
B2   B   0.047394961703495   0.094972559432592   0.112805868147226   1.0000000
B2   B   0.047336816273151   0.237943051940581   0.112601928347834   1.0000000
B2   B   0.047408440887842   0.380811842407073   0.113292572051409   1.0000000
B2   B   0.047558907748154   0.523742164141278   0.113657272471416   1.0000000
B2   B   0.047777833082376   0.666615016930662   0.113478717047068   1.0000000
B2   B   0.047872974487129   0.809518583362275   0.113110010457451   1.0000000
B2   B   0.190483298124229   0.952128834110313   0.113110043691413   1.0000000
B2   B   0.190233933942657   0.094841143657785   0.111888545608952   1.0000000
B2   B   0.189736268260572   0.237218230680169   0.110174212804866   1.0000000
B2   B   0.190085096499005   0.380522986068239   0.111050710606926   1.0000000
B2   B   0.190235384587489   0.523662701569903   0.112734866139345   1.0000000
B2   B   0.190479670781106   0.666561873443452   0.113405516960636   1.0000000
B2   B   0.190588812591177   0.809413411933107   0.113379040754356   1.0000000
B2   B   0.333387892886554   0.952224249163327   0.113475183890214   1.0000000
B2   B   0.333234884470422   0.094773032745876   0.111647051296605   1.0000000
B2   B   0.332811760453965   0.237174974674084   0.106235577201054   1.0000000
B2   B   0.332556420504148   0.378879081521165   0.104056672715330   1.0000000
B2   B   0.333538357880535   0.524525667804065   0.109761928383194   1.0000000
B2   B   0.333298746854751   0.666702740031608   0.112660347479943   1.0000000
B2   B   0.333440201934556   0.809522517502419   0.113402541791917   1.0000000
B2   B   0.476261142431636   0.952442596837670   0.113651262626159   1.0000000
B2   B   0.476212211442910   0.095223425694520   0.113455392578864   1.0000000
B2   B   0.476171594312793   0.238082724847914   0.109308260869278   1.0000000
B2   B   0.475672786903620   0.381282447211244   0.097382935470616   1.0000000
B2   B   0.475476725992171   0.666462778965520   0.109758451645607   1.0000000
B2   B   0.476337816016387   0.809764182447874   0.112728131277285   1.0000000
B2   B   0.619189824778313   0.952591375295445   0.113280862238437   1.0000000
B2   B   0.619051678853083   0.095340796478441   0.113817071906941   1.0000000
B2   B   0.618940930308031   0.238092416419032   0.112403576690978   1.0000000
B2   B   0.618903148860232   0.381098906672886   0.107110079262378   1.0000000
B2   B   0.618719820929399   0.524329345656192   0.097379114231818   1.0000000
B2   B   0.621123714794753   0.667445765105288   0.104050820429826   1.0000000
B2   B   0.619479241714066   0.809916568829674   0.111042401606757   1.0000000
B2   B   0.762059018661219   0.952664836081966   0.112593015204861   1.0000000
B2   B   0.761866394774709   0.095363312527067   0.113456143880037   1.0000000
B2   B   0.761824742902089   0.238176358928939   0.113665517324691   1.0000000
B2   B   0.761909042015814   0.381060788899042   0.112406395123752   1.0000000
B2   B   0.761919398856933   0.523830484246657   0.109307393808215   1.0000000
B2   B   0.762827376179845   0.667190222663420   0.106232357669453   1.0000000
B2   B   0.762783634136866   0.810265139153246   0.110167080796450   1.0000000
N2   N   0.952606077046656   0.904888129656429   0.112995481397816   1.0000000
N2   N   0.952336540269480   0.047664428962105   0.113094559308382   1.0000000
N2   N   0.952151651938224   0.190445788470137   0.113126230473145   1.0000000
N2   N   0.952170243904581   0.333299532697702   0.113660992025856   1.0000000
N2   N   0.952277816244216   0.476150277362252   0.113868217654319   1.0000000
N2   N   0.952557683932636   0.619031994161593   0.113226533960824   1.0000000
N2   N   0.952664340658485   0.761945499885698   0.112276412883422   1.0000000
N2   N   0.095332061355546   0.904669765216193   0.113325419326461   1.0000000
N2   N   0.095113558348048   0.047395564112341   0.112997820464737   1.0000000
N2   N   0.094702029070769   0.189994043564866   0.112107518428276   1.0000000
N2   N   0.094772241993328   0.333026085084097   0.112547517037180   1.0000000
N2   N   0.094965286418079   0.476030713507379   0.113397694367256   1.0000000
N2   N   0.095240718182928   0.618969381841437   0.113575124447942   1.0000000
N2   N   0.095358671951943   0.761835160648754   0.113306087442657   1.0000000
N2   N   0.238167534168664   0.904643560662831   0.113304066110073   1.0000000
N2   N   0.238056292112648   0.047337635928272   0.112277330058818   1.0000000
N2   N   0.237655516239489   0.189773534636808   0.109764550515742   1.0000000
N2   N   0.236742991989696   0.331917537057388   0.108716027019861   1.0000000
N2   N   0.237320505187052   0.475703447239169   0.111473338607974   1.0000000
N2   N   0.237968075584090   0.618974573687244   0.113053921040497   1.0000000
N2   N   0.238148934829940   0.761852960459132   0.113405456956884   1.0000000
N2   N   0.381033751604818   0.904761349266922   0.113570953427481   1.0000000
N2   N   0.380970081782115   0.047444476267591   0.113221877963949   1.0000000
N2   N   0.380832276202334   0.189983706839249   0.108957497806743   1.0000000
N2   N   0.380320139679921   0.331679500840336   0.100104667529710   1.0000000
N2   N   0.371564156836827   0.470405493863662   0.105813806505982   1.0000000
N2   N   0.380729213018132   0.619272852342710   0.111364089026384   1.0000000
N2   N   0.381026601825299   0.762033074102141   0.113050243330236   1.0000000
N2   N   0.523971110757694   0.905034799036148   0.113388530898886   1.0000000
N2   N   0.523851688296446   0.047723605954783   0.113860490372909   1.0000000
N2   N   0.523797035406927   0.190454242081424   0.112551728093071   1.0000000
N2   N   0.523771863886326   0.333030737671795   0.105054621236334   1.0000000
N2   N   0.525337014953901   0.474665321064798   0.094311595745963   1.0000000
N2   N   0.529597124579953   0.628437120805101   0.105809448956164   1.0000000
N2   N   0.524298705184272   0.762680579001618   0.111465961929600   1.0000000
N2   N   0.666976396430990   0.905228965291884   0.112535149062231   1.0000000
N2   N   0.666701322179710   0.047829511581176   0.113648151041528   1.0000000
N2   N   0.666604371097503   0.190588279596426   0.113637343169995   1.0000000
N2   N   0.666583419322863   0.333418288984485   0.110932642900212   1.0000000
N2   N   0.666971021511746   0.476230050068993   0.105051757867306   1.0000000
N2   N   0.668322947080641   0.619682043546975   0.100099724560751   1.0000000
N2   N   0.668084657362834   0.763258913594269   0.108708053473493   1.0000000
N2   N   0.810007372411608   0.905299047917547   0.112101110888256   1.0000000
N2   N   0.809555793759426   0.047849856205475   0.113120575790509   1.0000000
N2   N   0.809404679086515   0.190595986543892   0.113578305774818   1.0000000
N2   N   0.809412579603116   0.333396973691928   0.113642597229619   1.0000000
N2   N   0.809547451376421   0.476204768457559   0.112555113646574   1.0000000
N2   N   0.810018488291516   0.619169671041709   0.108956486094875   1.0000000
N2   N   0.810228721192936   0.762346315771422   0.109760624025936   1.0000000


