data_1
_audit_creation_method   'vasp2cif'
_cell_length_a    17.52789999999977
_cell_length_b    17.52789999999977
_cell_length_c    15.0
_cell_angle_alpha    90.0
_cell_angle_beta    90.0
_cell_angle_gamma    119.99999999999916

_symmetry_space_group_name_H-M    'P 1'
loop_
_atom_site_label
_atom_site_type_symbol
_atom_site_fract_x
_atom_site_fract_y
_atom_site_fract_z
_atom_site_occupancy
In2   In   0.495191778048614   0.504809623868383   0.111327137611098   1.0000000
B2   B   0.906782061585412   0.953984512814900   0.111008612056630   1.0000000
B2   B   0.904372192450793   0.095629828745204   0.111025376999031   1.0000000
B2   B   0.903709155995979   0.238254927696404   0.111035550346793   1.0000000
B2   B   0.904285314199235   0.381173783489934   0.110978603664583   1.0000000
B2   B   0.906735285115394   0.524447444707695   0.111033750326126   1.0000000
B2   B   0.908857737153337   0.668211186758374   0.111063861554924   1.0000000
B2   B   0.909391122916961   0.812242161155151   0.111059155467028   1.0000000
B2   B   0.048523001625110   0.951479019570894   0.111043637231836   1.0000000
B2   B   0.046017508381104   0.093219959610585   0.111008612056630   1.0000000
B2   B   0.045246368905216   0.236673880110307   0.110973926940703   1.0000000
B2   B   0.045985667105839   0.380297604923924   0.111000056459141   1.0000000
B2   B   0.048057756100924   0.523521054248220   0.111019352570725   1.0000000
B2   B   0.049773706390775   0.666481491422323   0.111070036110600   1.0000000
B2   B   0.049884057548333   0.809271536416626   0.111052834552899   1.0000000
B2   B   0.190730484779377   0.950117963647669   0.111052834552899   1.0000000
B2   B   0.187759860040852   0.090610898279035   0.111059155467028   1.0000000
B2   B   0.184753911057644   0.232227376051928   0.110993238882277   1.0000000
B2   B   0.186433255985817   0.378300835584980   0.111011457960849   1.0000000
B2   B   0.189504569552369   0.522688700708432   0.111067225042069   1.0000000
B2   B   0.191880806701856   0.665708291733756   0.111050328051466   1.0000000
B2   B   0.191794384502092   0.808207636693912   0.111029736365505   1.0000000
B2   B   0.333520529774675   0.950228314805229   0.111070036110600   1.0000000
B2   B   0.331790834438623   0.091144284042658   0.111063861554924   1.0000000
B2   B   0.326048757215740   0.228382950193581   0.111003830215265   1.0000000
B2   B   0.321922520882763   0.371539407022211   0.111004078130743   1.0000000
B2   B   0.330548462696322   0.520814361942501   0.111053268176794   1.0000000
B2   B   0.334796800351307   0.665205220845691   0.111093956788428   1.0000000
B2   B   0.334293729463242   0.808121214494148   0.111050328051466   1.0000000
B2   B   0.476480966948780   0.951944265095080   0.111019352570725   1.0000000
B2   B   0.475554576489302   0.093266736080602   0.111033750326126   1.0000000
B2   B   0.473645680864170   0.233084078460679   0.110993745732702   1.0000000
B2   B   0.461039607033831   0.359388449332666   0.111099270106496   1.0000000
B2   B   0.479187659254498   0.669453558500675   0.111053268176794   1.0000000
B2   B   0.477313320488565   0.810497451643634   0.111067225042069   1.0000000
B2   B   0.619704416272080   0.954016354090166   0.111000056459141   1.0000000
B2   B   0.618828237706071   0.095716706996761   0.110978603664583   1.0000000
B2   B   0.618371458062063   0.238002746352981   0.110979278815556   1.0000000
B2   B   0.618638812867052   0.381363208328952   0.110996802263777   1.0000000
B2   B   0.640613571863338   0.538962414163166   0.111099270106496   1.0000000
B2   B   0.628462614173794   0.678079500314235   0.111004078130743   1.0000000
B2   B   0.621701185611023   0.813568765210186   0.111011457960849   1.0000000
B2   B   0.763328141085696   0.954755652290788   0.110973926940703   1.0000000
B2   B   0.761747093499599   0.096292865200018   0.111035550346793   1.0000000
B2   B   0.761343906215383   0.238658114980621   0.111029433866357   1.0000000
B2   B   0.761999274843023   0.381630563133941   0.110979278815556   1.0000000
B2   B   0.766917942735325   0.526356340332827   0.110993745732702   1.0000000
B2   B   0.771619071002423   0.673953263981258   0.111003830215265   1.0000000
B2   B   0.767774645144075   0.815248110138360   0.110993238882277   1.0000000
N2   N   0.954416115439829   0.906073003244459   0.111017195987694   1.0000000
N2   N   0.952090646486674   0.047910755431331   0.111000736271941   1.0000000
N2   N   0.950866488136832   0.190296144033025   0.111005171127580   1.0000000
N2   N   0.951079737891768   0.333225755689067   0.110982838542205   1.0000000
N2   N   0.952789758727856   0.476199344107306   0.110980182868860   1.0000000
N2   N   0.954529855913041   0.619342378525322   0.111059279423394   1.0000000
N2   N   0.955123824497564   0.762794143848308   0.111056440991897   1.0000000
N2   N   0.096159616277818   0.903841785640180   0.111029205830055   1.0000000
N2   N   0.093928398673539   0.045585286478177   0.111017195987694   1.0000000
N2   N   0.091490507073944   0.187410282250226   0.110957384967091   1.0000000
N2   N   0.092262063268030   0.331647870667308   0.110968086352102   1.0000000
N2   N   0.094530174584422   0.475358442233854   0.111007271816655   1.0000000
N2   N   0.096572414996381   0.618477531534960   0.111030924753704   1.0000000
N2   N   0.096870129747938   0.761280596510104   0.111032050574575   1.0000000
N2   N   0.238720805407902   0.903131272170061   0.111032050574575   1.0000000
N2   N   0.237207258069696   0.044877577420442   0.111056440991897   1.0000000
N2   N   0.233035041123991   0.184762464819431   0.111006923233201   1.0000000
N2   N   0.229746063276871   0.326197461948375   0.110989246454663   1.0000000
N2   N   0.235320755850427   0.473790217024771   0.111049117219711   1.0000000
N2   N   0.239231745099032   0.617869624461326   0.111067317938510   1.0000000
N2   N   0.239293244304115   0.760708157613891   0.111017559952323   1.0000000
N2   N   0.381523870383038   0.903428986921619   0.111030924753704   1.0000000
N2   N   0.380659023392675   0.045471546004965   0.111059279423394   1.0000000
N2   N   0.378662465663620   0.186394283635737   0.110996883833011   1.0000000
N2   N   0.370730236476899   0.323101591333253   0.110995360947331   1.0000000
N2   N   0.366171825200408   0.463406885363262   0.110933802023946   1.0000000
N2   N   0.382860297389438   0.617141104528561   0.111068405965331   1.0000000
N2   N   0.382131777456671   0.760769656818974   0.111067317938510   1.0000000
N2   N   0.524642959683143   0.905471227333576   0.111007271816655   1.0000000
N2   N   0.523802057809692   0.047211643190150   0.110980182868860   1.0000000
N2   N   0.523041641633714   0.188933568762163   0.110979132347566   1.0000000
N2   N   0.521744804314793   0.330317224171590   0.110995825705899   1.0000000
N2   N   0.536594516553736   0.633829576717590   0.110933802023946   1.0000000
N2   N   0.526211184892223   0.764680646067579   0.111049117219711   1.0000000
N2   N   0.668353531249687   0.907739338649969   0.110968086352102   1.0000000
N2   N   0.666775646227929   0.048921664026237   0.110982838542205   1.0000000
N2   N   0.666073242508435   0.191242974148861   0.110974018977492   1.0000000
N2   N   0.665678863335024   0.334322538581971   0.110960883709144   1.0000000
N2   N   0.669684177745407   0.478256597602204   0.110995825705899   1.0000000
N2   N   0.676899810583744   0.629271165441100   0.110995360947331   1.0000000
N2   N   0.673803939968623   0.770255338641135   0.110989246454663   1.0000000
N2   N   0.812591119667772   0.908510894844054   0.110957384967091   1.0000000
N2   N   0.809705257884973   0.049134913781174   0.111005171127580   1.0000000
N2   N   0.808749639610111   0.191251762307887   0.111041138964244   1.0000000
N2   N   0.808758427769137   0.333928159408561   0.110974018977492   1.0000000
N2   N   0.811067833155835   0.476959760283281   0.110979132347566   1.0000000
N2   N   0.813607118282263   0.621338936254380   0.110996883833011   1.0000000
N2   N   0.815238937098568   0.766966360794016   0.111006923233201   1.0000000


