data_1
_audit_creation_method   'vasp2cif'
_cell_length_a    17.52789999999977
_cell_length_b    17.52789999999977
_cell_length_c    15.0
_cell_angle_alpha    90.0
_cell_angle_beta    90.0
_cell_angle_gamma    119.99999999999916

_symmetry_space_group_name_H-M    'P 1'
loop_
_atom_site_label
_atom_site_type_symbol
_atom_site_fract_x
_atom_site_fract_y
_atom_site_fract_z
_atom_site_occupancy
B2   B   0.905543528214590   0.953759624563278   0.111016621035326   1.0000000
B2   B   0.904053233322505   0.095948350567897   0.111010138746402   1.0000000
B2   B   0.903565590384301   0.238718129889751   0.111051664471602   1.0000000
B2   B   0.903710800590722   0.381569535673069   0.110995113665727   1.0000000
B2   B   0.904818172436027   0.524483503351481   0.110990518437051   1.0000000
B2   B   0.906503468559058   0.667789248373232   0.111077096735473   1.0000000
B2   B   0.907214563706749   0.811626376500448   0.111047181404128   1.0000000
B2   B   0.047807369086275   0.952194353463763   0.111006179378503   1.0000000
B2   B   0.046241872428587   0.094458463414022   0.111023489604503   1.0000000
B2   B   0.045821592225022   0.237688048454019   0.111003041593151   1.0000000
B2   B   0.046340642162393   0.380893875101118   0.110982768149822   1.0000000
B2   B   0.047629256625077   0.523780016149079   0.110975814218757   1.0000000
B2   B   0.048571505762966   0.666650087002098   0.111034200498147   1.0000000
B2   B   0.048661067798454   0.809590859142614   0.111038391748444   1.0000000
B2   B   0.190410476674809   0.951340909439998   0.111029064518263   1.0000000
B2   B   0.188374552292505   0.092786964154088   0.111058691679101   1.0000000
B2   B   0.186752790321873   0.235050859936455   0.111050124344589   1.0000000
B2   B   0.188091422904384   0.379597752446859   0.111020864263002   1.0000000
B2   B   0.190573407055051   0.523006064420264   0.111004531869932   1.0000000
B2   B   0.191414945138608   0.665988774299621   0.111001880882807   1.0000000
B2   B   0.191167471075126   0.808834461407858   0.110979362438842   1.0000000
B2   B   0.333351606066333   0.951430205253251   0.111026598117838   1.0000000
B2   B   0.332209811616126   0.093497163256005   0.111078999283469   1.0000000
B2   B   0.328317201362215   0.232733337239054   0.111046816395429   1.0000000
B2   B   0.326423455497596   0.375446629227847   0.111052861041597   1.0000000
B2   B   0.333734011239156   0.521332995121284   0.111046693811204   1.0000000
B2   B   0.334746408761365   0.665254668147513   0.111043225090346   1.0000000
B2   B   0.334012690933768   0.808586567369880   0.111002326642161   1.0000000
B2   B   0.476220254449839   0.952372278882933   0.110983769642479   1.0000000
B2   B   0.475517503376219   0.095183446378849   0.110990329896687   1.0000000
B2   B   0.474261847297017   0.237487774284583   0.111007559064301   1.0000000
B2   B   0.466136011262820   0.372563598635701   0.111084235483823   1.0000000
B2   B   0.478664379700012   0.666271811056967   0.111076945054507   1.0000000
B2   B   0.476994050482104   0.809427097032691   0.111014841075082   1.0000000
B2   B   0.619107728592626   0.953660218497408   0.110987319752006   1.0000000
B2   B   0.618431779110047   0.096291275343199   0.111000021115371   1.0000000
B2   B   0.617850485113806   0.239348177165757   0.111038001324800   1.0000000
B2   B   0.617101871119610   0.382898530757369   0.111025581253161   1.0000000
B2   B   0.627441020909422   0.533869004403239   0.111132455791858   1.0000000
B2   B   0.624559103294930   0.673582516451074   0.111100615316918   1.0000000
B2   B   0.620404040530833   0.811910591713707   0.111021771508153   1.0000000
B2   B   0.762313129460575   0.954179401560824   0.110996794952780   1.0000000
B2   B   0.761286405681723   0.096437602249875   0.111054414787235   1.0000000
B2   B   0.760811221008346   0.239190572092912   0.111086820810443   1.0000000
B2   B   0.760652940861186   0.382150260511132   0.111042411183529   1.0000000
B2   B   0.762512478992080   0.525737806114895   0.111021893948378   1.0000000
B2   B   0.767269689804007   0.671684680201083   0.111053800373075   1.0000000
B2   B   0.764952807172180   0.813249669154985   0.111023363695437   1.0000000
Ge2   Ge   0.495606887577060   0.504399617278470   0.110990776460455   1.0000000
N2   N   0.953351558762095   0.906078357987392   0.111004131052211   1.0000000
N2   N   0.951743710366527   0.048257598983346   0.110998393577088   1.0000000
N2   N   0.950953582074435   0.190863388112015   0.110999459585734   1.0000000
N2   N   0.951090931392264   0.333799509511243   0.110988469497278   1.0000000
N2   N   0.952087316125823   0.476664439964818   0.110947593177421   1.0000000
N2   N   0.953288010472590   0.619567824016185   0.111028326832419   1.0000000
N2   N   0.953784744671556   0.762832057903048   0.111056950626311   1.0000000
N2   N   0.095515149160323   0.904486290558044   0.110993402329313   1.0000000
N2   N   0.093923209490313   0.046650609690494   0.111004100699757   1.0000000
N2   N   0.092477675702735   0.188996289414379   0.111007526657805   1.0000000
N2   N   0.093147632183226   0.332714463542628   0.110978583782336   1.0000000
N2   N   0.094964246897548   0.476001226163751   0.110962049975544   1.0000000
N2   N   0.095954242200203   0.618881684947986   0.110989662969158   1.0000000
N2   N   0.096048174762795   0.761720055417908   0.110997830594227   1.0000000
N2   N   0.238281121682014   0.903953818325061   0.110984760526992   1.0000000
N2   N   0.237170313065668   0.046217961095057   0.111052224482519   1.0000000
N2   N   0.234201969293252   0.187006334175797   0.111039246125936   1.0000000
N2   N   0.232736331128099   0.329345481887202   0.111035062557134   1.0000000
N2   N   0.237539798032695   0.474846826062742   0.111006233300773   1.0000000
N2   N   0.239048384791974   0.618276955286974   0.110999572448978   1.0000000
N2   N   0.238796605747412   0.761205992597564   0.110972755123420   1.0000000
N2   N   0.381119701696938   0.904048770538351   0.110992050792817   1.0000000
N2   N   0.380434183173076   0.046713055934315   0.111023158750779   1.0000000
N2   N   0.379014420312044   0.188499632400448   0.111026885974196   1.0000000
N2   N   0.373329727198444   0.326550769985796   0.111052211130832   1.0000000
N2   N   0.375320842980308   0.468546291373095   0.111009335298745   1.0000000
N2   N   0.382623534882668   0.617377639161169   0.111039317531861   1.0000000
N2   N   0.381723927039139   0.760953095466841   0.111001213581320   1.0000000
N2   N   0.523997993684571   0.905035807800208   0.110969286194439   1.0000000
N2   N   0.523336891206514   0.047914474371612   0.110955452113324   1.0000000
N2   N   0.522614684864726   0.190833286866372   0.110980136004824   1.0000000
N2   N   0.521157625295111   0.333837184651671   0.111008365547169   1.0000000
N2   N   0.531457538450090   0.624684894672983   0.111074241250598   1.0000000
N2   N   0.525154223118360   0.762463256092911   0.111024994784080   1.0000000
N2   N   0.667285836031590   0.906854834544014   0.110974156342523   1.0000000
N2   N   0.666199986646170   0.048909662233182   0.110991315227462   1.0000000
N2   N   0.665576859553904   0.191764294075427   0.111033579967379   1.0000000
N2   N   0.664910477559918   0.335089193307967   0.111028115324392   1.0000000
N2   N   0.666164188038824   0.478843180030202   0.111031605236618   1.0000000
N2   N   0.673453415110130   0.626673828654282   0.111101979506876   1.0000000
N2   N   0.670657891826781   0.767267268915477   0.111030425842994   1.0000000
N2   N   0.811005431735479   0.907524573486791   0.110987640885402   1.0000000
N2   N   0.809135959349492   0.049046413625064   0.111001865290274   1.0000000
N2   N   0.808433589786114   0.191565134978390   0.111075666572500   1.0000000
N2   N   0.808235957666570   0.334423710532468   0.111034991972445   1.0000000
N2   N   0.809167407539722   0.477386195620864   0.110986704520884   1.0000000
N2   N   0.811500792557056   0.620986002413761   0.111028840690250   1.0000000
N2   N   0.812997021768630   0.765799593040172   0.111006298864561   1.0000000


