data_1
_audit_creation_method   'vasp2cif'
_cell_length_a    14.93631414619966
_cell_length_b    14.936314146199727
_cell_length_c    13.341276283792837
_cell_angle_alpha    90.0
_cell_angle_beta    90.0
_cell_angle_gamma    119.99999999999984

_symmetry_space_group_name_H-M    'P 1'
loop_
_atom_site_label
_atom_site_type_symbol
_atom_site_fract_x
_atom_site_fract_y
_atom_site_fract_z
_atom_site_occupancy
In2   In   0.496225538522520   0.414779435927920   0.375000000000000   1.0000000
N2   N   0.111096368951923   0.055551182617193   0.124687499755526   1.0000000
N2   N   0.611531337870203   0.556206313334618   0.125275627024420   1.0000000
N2   N   0.444566122810075   0.055600059554388   0.124468068574797   1.0000000
N2   N   0.944521695760908   0.555568890487855   0.124298351985582   1.0000000
N2   N   0.777931797301852   0.055632565317596   0.124898983856927   1.0000000
N2   N   0.111188547258089   0.722260940295707   0.625092977524096   1.0000000
N2   N   0.444566122810075   0.722299396589027   0.625531931425208   1.0000000
N2   N   0.277560916562323   0.222093654087675   0.626428391262656   1.0000000
N2   N   0.777980783998157   0.722520863127021   0.626473571836548   1.0000000
N2   N   0.611322246590121   0.222121728317001   0.626472836257876   1.0000000
N2   N   0.944506577443290   0.222220205069646   0.624987219995510   1.0000000
N2   N   0.277875487622961   0.722266700502754   0.124970496575469   1.0000000
N2   N   0.111013901008202   0.222173617170766   0.124528342763732   1.0000000
N2   N   0.444554521282003   0.222274824093681   0.124582126267733   1.0000000
N2   N   0.611322246590121   0.722533851606454   0.123527163742128   1.0000000
N2   N   0.944521695760908   0.722286138606393   0.124298351985582   1.0000000
N2   N   0.777952218833120   0.222171566419017   0.124391439641167   1.0000000
N2   N   0.111180819196531   0.888940090169101   0.625157819361649   1.0000000
N2   N   0.444568109898764   0.888950721616044   0.625186386135469   1.0000000
N2   N   0.277560916562323   0.388800595807974   0.626428391262656   1.0000000
N2   N   0.611531337870203   0.388658357868915   0.624724372975582   1.0000000
N2   N   0.777952218833120   0.889113985747435   0.625608560358836   1.0000000
N2   N   0.944543279642475   0.388874822019411   0.625354391042946   1.0000000
N2   N   0.111096368951923   0.388878519668057   0.124687499755526   1.0000000
N2   N   0.277875487622961   0.888942120453544   0.124970496575469   1.0000000
N2   N   0.611265504695648   0.889029758383651   0.124551596597875   1.0000000
N2   N   0.443791124518253   0.388562228925794   0.125871556604219   1.0000000
N2   N   0.944543279642475   0.889001790956386   0.124645608957049   1.0000000
N2   N   0.777980783998157   0.388793254204474   0.123526428163447   1.0000000
N2   N   0.277853589954904   0.555586319722348   0.625481719317148   1.0000000
N2   N   0.111096368951923   0.055551182617193   0.625312500244475   1.0000000
N2   N   0.611531337870203   0.556206313334618   0.624724372975582   1.0000000
N2   N   0.444566122810075   0.055600059554388   0.625531931425208   1.0000000
N2   N   0.944521695760908   0.555568890487855   0.625701648014423   1.0000000
N2   N   0.111180819196531   0.555574062360751   0.124842180638358   1.0000000
N2   N   0.777931797301852   0.055632565317596   0.625101016143079   1.0000000
N2   N   0.277853589954904   0.055600603565884   0.124518280682850   1.0000000
N2   N   0.444554521282003   0.555613030521661   0.124582126267733   1.0000000
N2   N   0.777887550011968   0.555610441672650   0.124209152251936   1.0000000
N2   N   0.611265504695648   0.055569079645327   0.124551596597875   1.0000000
N2   N   0.444554521282003   0.555613030521661   0.625417873732267   1.0000000
N2   N   0.944506577443290   0.055619705706977   0.125012780004490   1.0000000
N2   N   0.277875487622961   0.722266700502754   0.625029503424537   1.0000000
N2   N   0.111013901008202   0.222173617170766   0.625471657236273   1.0000000
N2   N   0.444554521282003   0.222274824093681   0.625417873732267   1.0000000
N2   N   0.611322246590121   0.722533851606454   0.626472836257876   1.0000000
N2   N   0.944521695760908   0.722286138606393   0.625701648014423   1.0000000
N2   N   0.777952218833120   0.222171566419017   0.625608560358836   1.0000000
N2   N   0.111188547258089   0.722260940295707   0.124907022475902   1.0000000
N2   N   0.444566122810075   0.722299396589027   0.124468068574797   1.0000000
N2   N   0.277560916562323   0.222093654087675   0.123571608737338   1.0000000
N2   N   0.777980783998157   0.722520863127021   0.123526428163447   1.0000000
N2   N   0.611322246590121   0.222121728317001   0.123527163742128   1.0000000
N2   N   0.944506577443290   0.222220205069646   0.125012780004490   1.0000000
N2   N   0.111096368951923   0.388878519668057   0.625312500244475   1.0000000
N2   N   0.277875487622961   0.888942120453544   0.625029503424537   1.0000000
N2   N   0.611265504695648   0.889029758383651   0.625448403402128   1.0000000
N2   N   0.443791124518253   0.388562228925794   0.624128443395785   1.0000000
N2   N   0.944543279642475   0.889001790956386   0.625354391042946   1.0000000
N2   N   0.111180819196531   0.888940090169101   0.124842180638358   1.0000000
N2   N   0.777980783998157   0.388793254204474   0.626473571836548   1.0000000
N2   N   0.444568109898764   0.888950721616044   0.124813613864536   1.0000000
N2   N   0.277560916562323   0.388800595807974   0.123571608737338   1.0000000
N2   N   0.277853589954904   0.555586319722348   0.124518280682850   1.0000000
N2   N   0.611531337870203   0.388658357868915   0.125275627024420   1.0000000
N2   N   0.777952218833120   0.889113985747435   0.124391439641167   1.0000000
N2   N   0.944543279642475   0.388874822019411   0.124645608957049   1.0000000
N2   N   0.111180819196531   0.555574062360751   0.625157819361649   1.0000000
N2   N   0.277853589954904   0.055600603565884   0.625481719317148   1.0000000
N2   N   0.777887550011968   0.555610441672650   0.625790847748066   1.0000000
N2   N   0.611265504695648   0.055569079645327   0.625448403402128   1.0000000
N2   N   0.944506577443290   0.055619705706977   0.624987219995510   1.0000000
N2   N   0.056255079345237   0.111480126715293   0.375000000000000   1.0000000
N2   N   0.554491524579924   0.620474363737970   0.375000000000000   1.0000000
N2   N   0.385982597784020   0.102255596677595   0.375000000000000   1.0000000
N2   N   0.886551586714807   0.609942460024072   0.375000000000000   1.0000000
N2   N   0.722765207565369   0.110415711860371   0.375000000000000   1.0000000
N2   N   0.055646370555249   0.777820917774893   0.875000000000000   1.0000000
N2   N   0.388919917162294   0.777815582996427   0.875000000000000   1.0000000
N2   N   0.222303887347234   0.277818610340287   0.875000000000000   1.0000000
N2   N   0.722257769356823   0.777769861695718   0.875000000000000   1.0000000
N2   N   0.555560939752842   0.277767326941012   0.875000000000000   1.0000000
N2   N   0.888935238071475   0.277813934394942   0.875000000000000   1.0000000
N2   N   0.219287227696383   0.776310280514859   0.375000000000000   1.0000000
N2   N   0.056255079345237   0.278108285963281   0.375000000000000   1.0000000
N2   N   0.384229481330064   0.261881496238345   0.375000000000000   1.0000000
N2   N   0.554661020827296   0.781896795462551   0.375000000000000   1.0000000
N2   N   0.888438029648653   0.778221771267984   0.375000000000000   1.0000000
N2   N   0.722760144988068   0.275570394122491   0.375000000000000   1.0000000
N2   N   0.055607917730221   0.944462979429973   0.875000000000000   1.0000000
N2   N   0.388919917162294   0.944437667499211   0.875000000000000   1.0000000
N2   N   0.222274555149606   0.444491347797246   0.875000000000000   1.0000000
N2   N   0.555602435710389   0.444467884521859   0.875000000000000   1.0000000
N2   N   0.722261601462917   0.944455044916530   0.875000000000000   1.0000000
N2   N   0.888962512563281   0.444497087605503   0.875000000000000   1.0000000
N2   N   0.054063125325924   0.444394343704339   0.375000000000000   1.0000000
N2   N   0.219233416370392   0.940965133710635   0.375000000000000   1.0000000
N2   N   0.554766424153643   0.944049878743494   0.375000000000000   1.0000000
N2   N   0.384229481330065   0.455681318425058   0.375000000000000   1.0000000
N2   N   0.889486246836972   0.945453870742625   0.375000000000000   1.0000000
N2   N   0.722895494725907   0.442491231677124   0.375000000000000   1.0000000
N2   N   0.222257952321886   0.611152642417200   0.875000000000000   1.0000000
N2   N   0.055615891131779   0.111138185949360   0.875000000000000   1.0000000
N2   N   0.555560939752842   0.611126946145172   0.875000000000000   1.0000000
N2   N   0.388905553164044   0.111070594283806   0.875000000000000   1.0000000
N2   N   0.889027199278428   0.611180266305889   0.875000000000000   1.0000000
N2   N   0.052979623038156   0.610261147210775   0.375000000000000   1.0000000
N2   N   0.722261601462917   0.111139889879718   0.875000000000000   1.0000000
N2   N   0.219480541067834   0.106940803908883   0.375000000000000   1.0000000
N2   N   0.385982597784020   0.617060334439770   0.375000000000000   1.0000000
N2   N   0.722895494725907   0.613737596382121   0.375000000000000   1.0000000
N2   N   0.554661020827296   0.106097558698073   0.375000000000000   1.0000000
N2   N   0.388905553164044   0.611168292213584   0.875000000000000   1.0000000
N2   N   0.889823063907582   0.111578198620464   0.375000000000000   1.0000000
N2   N   0.222277127726364   0.777805230529847   0.875000000000000   1.0000000
N2   N   0.055615891131779   0.277811038515754   0.875000000000000   1.0000000
N2   N   0.388952413830944   0.277764245846928   0.875000000000000   1.0000000
N2   N   0.555579353170970   0.777795422334760   0.875000000000000   1.0000000
N2   N   0.888962512563281   0.777798758291109   0.875000000000000   1.0000000
N2   N   0.722257769356823   0.277821240994439   0.875000000000000   1.0000000
N2   N   0.052979623038156   0.776051809160721   0.375000000000000   1.0000000
N2   N   0.386487835206077   0.778870911465335   0.375000000000000   1.0000000
N2   N   0.223980253779276   0.278656793556307   0.375000000000000   1.0000000
N2   N   0.722760144988068   0.780523084198920   0.375000000000000   1.0000000
N2   N   0.554491524579924   0.267350494175299   0.375000000000000   1.0000000
N2   N   0.889486246836971   0.277365709427687   0.375000000000000   1.0000000
N2   N   0.055607917730221   0.444478271633575   0.875000000000000   1.0000000
N2   N   0.222257952321886   0.944438643238017   0.875000000000000   1.0000000
N2   N   0.555591896887221   0.944462615110275   0.875000000000000   1.0000000
N2   N   0.388952413830944   0.444521501317347   0.875000000000000   1.0000000
N2   N   0.888935238071475   0.944454637009866   0.875000000000000   1.0000000
N2   N   0.054063125325924   0.943002114954912   0.375000000000000   1.0000000
N2   N   0.722317039062968   0.444520519578099   0.875000000000000   1.0000000
N2   N   0.386487835206077   0.940950257074079   0.375000000000000   1.0000000
N2   N   0.219480541067834   0.445873070492290   0.375000000000000   1.0000000
N2   N   0.219233416370392   0.611601615993092   0.375000000000000   1.0000000
N2   N   0.722765207565369   0.945682829038330   0.375000000000000   1.0000000
N2   N   0.888438029648653   0.443549591714011   0.375000000000000   1.0000000
N2   N   0.055646370555249   0.611158786113689   0.875000000000000   1.0000000
N2   N   0.222274555149606   0.111116540685690   0.875000000000000   1.0000000
N2   N   0.722317039062968   0.611129852818213   0.875000000000000   1.0000000
N2   N   0.555579353170970   0.111117264169542   0.875000000000000   1.0000000
N2   N   0.888939280035662   0.111136306684504   0.875000000000000   1.0000000
B2   B   0.110111891953644   0.054033936762618   0.375000000000000   1.0000000
B2   B   0.612902032768248   0.567832024415382   0.375000000000000   1.0000000
B2   B   0.443235919623137   0.050704245636021   0.375000000000000   1.0000000
B2   B   0.941999570430555   0.554548224416537   0.375000000000000   1.0000000
B2   B   0.778807871358203   0.056070602345770   0.375000000000000   1.0000000
B2   B   0.111157134930885   0.722245234132106   0.875000000000000   1.0000000
B2   B   0.444461360545858   0.722163496119971   0.875000000000000   1.0000000
B2   B   0.278018013940284   0.222362767730915   0.875000000000000   1.0000000
B2   B   0.777719948714010   0.722056776936648   0.875000000000000   1.0000000
B2   B   0.611072283260173   0.222358486228588   0.875000000000000   1.0000000
B2   B   0.944524781290958   0.222288034112173   0.875000000000000   1.0000000
B2   B   0.275444692215494   0.722065705391045   0.375000000000000   1.0000000
B2   B   0.113707025066096   0.223520179199712   0.375000000000000   1.0000000
B2   B   0.441446643725984   0.212242007585837   0.375000000000000   1.0000000
B2   B   0.610960958243108   0.727890884968608   0.375000000000000   1.0000000
B2   B   0.941999570430555   0.720784679347350   0.375000000000000   1.0000000
B2   B   0.778451030704630   0.221426187099921   0.375000000000000   1.0000000
B2   B   0.111180778080768   0.888913251380458   0.875000000000000   1.0000000
B2   B   0.444460740852930   0.888897037093132   0.875000000000000   1.0000000
B2   B   0.278018013940284   0.388988579542694   0.875000000000000   1.0000000
B2   B   0.611070473475441   0.388995982199180   0.875000000000000   1.0000000
B2   B   0.777764266849242   0.888782552700603   0.875000000000000   1.0000000
B2   B   0.944473719318233   0.388961952784255   0.875000000000000   1.0000000
B2   B   0.110111891953644   0.389411288524357   0.375000000000000   1.0000000
B2   B   0.275444692215494   0.886712320157779   0.375000000000000   1.0000000
B2   B   0.611417341366206   0.890879454073229   0.375000000000000   1.0000000
B2   B   0.943748807559569   0.888714859279415   0.375000000000000   1.0000000
B2   B   0.777668852194017   0.387356346334052   0.375000000000000   1.0000000
B2   B   0.277897635761262   0.555591539531752   0.875000000000000   1.0000000
B2   B   0.111245978567644   0.055619636544563   0.875000000000000   1.0000000
B2   B   0.611070473475441   0.555407824609597   0.875000000000000   1.0000000
B2   B   0.444461360545858   0.055631197759220   0.875000000000000   1.0000000
B2   B   0.944464222923584   0.555613033545777   0.875000000000000   1.0000000
B2   B   0.108728394308570   0.555264635013618   0.375000000000000   1.0000000
B2   B   0.777795667251046   0.055564500292191   0.875000000000000   1.0000000
B2   B   0.275438035589626   0.051773190812852   0.375000000000000   1.0000000
B2   B   0.441446643725984   0.562537969473486   0.375000000000000   1.0000000
B2   B   0.774569773627742   0.553951553480540   0.375000000000000   1.0000000
B2   B   0.611417341366206   0.053871220626304   0.375000000000000   1.0000000
B2   B   0.444537286831771   0.555514971693379   0.875000000000000   1.0000000
B2   B   0.945669715756612   0.056442674989546   0.375000000000000   1.0000000
B2   B   0.277834421674648   0.722233061869525   0.875000000000000   1.0000000
B2   B   0.111307794302471   0.222320563817899   0.875000000000000   1.0000000
B2   B   0.444537286831771   0.222355648471731   0.875000000000000   1.0000000
B2   B   0.611072283260173   0.722047130364911   0.875000000000000   1.0000000
B2   B   0.944464222923584   0.722184522711153   0.875000000000000   1.0000000
B2   B   0.777764266849242   0.222315047481974   0.875000000000000   1.0000000
B2   B   0.108433091980054   0.720883212656701   0.375000000000000   1.0000000
B2   B   0.443235919623137   0.725865007320446   0.375000000000000   1.0000000
B2   B   0.278317906086311   0.219374836899858   0.375000000000000   1.0000000
B2   B   0.777668852194017   0.723645839193295   0.375000000000000   1.0000000
B2   B   0.610960958243108   0.216403406607831   0.375000000000000   1.0000000
B2   B   0.945669715756612   0.222560374100398   0.375000000000000   1.0000000
B2   B   0.111245978567644   0.388959675356410   0.875000000000000   1.0000000
B2   B   0.277834421674648   0.888934693138448   0.875000000000000   1.0000000
B2   B   0.611106843650835   0.888833763513127   0.875000000000000   1.0000000
B2   B   0.444648691286452   0.388991012309886   0.875000000000000   1.0000000
B2   B   0.944473719318233   0.888845099867306   0.875000000000000   1.0000000
B2   B   0.108728394308570   0.886797092628278   0.375000000000000   1.0000000
B2   B   0.777719948714010   0.388996505110695   0.875000000000000   1.0000000
B2   B   0.443359993893615   0.888346663613473   0.375000000000000   1.0000000
B2   B   0.278317906086311   0.392276402519782   0.375000000000000   1.0000000
B2   B   0.275438035589626   0.556998178110108   0.375000000000000   1.0000000
B2   B   0.612902032768248   0.378403341686189   0.375000000000000   1.0000000
B2   B   0.778451030704630   0.890358176938046   0.375000000000000   1.0000000
B2   B   0.943748807559569   0.388367281613480   0.375000000000000   1.0000000
B2   B   0.111180778080768   0.555600860033642   0.875000000000000   1.0000000
B2   B   0.277897635761262   0.055639429562841   0.875000000000000   1.0000000
B2   B   0.777738184458684   0.555535758896016   0.875000000000000   1.0000000
B2   B   0.611106843650835   0.055606413471035   0.875000000000000   1.0000000
B2   B   0.944524781290958   0.055570080512117   0.875000000000000   1.0000000
B2   B   0.055673928422428   0.111212202050687   0.125118800614492   1.0000000
B2   B   0.555932674185580   0.610953584768330   0.125063458707902   1.0000000
B2   B   0.389204253730132   0.111634327502337   0.124980926822958   1.0000000
B2   B   0.888485134516021   0.610909233924673   0.124545080232442   1.0000000
B2   B   0.722348254455537   0.111170671805479   0.124921015630285   1.0000000
B2   B   0.055491505678324   0.777776455038540   0.625040819218395   1.0000000
B2   B   0.389086283616644   0.777755076199474   0.624941131999208   1.0000000
B2   B   0.222373856650246   0.277853594991790   0.625459109507301   1.0000000
B2   B   0.722261653132510   0.777790636898294   0.625790758865171   1.0000000
B2   B   0.555932674185580   0.278312422750576   0.624936541292099   1.0000000
B2   B   0.888958309225990   0.277772184522537   0.625012925888581   1.0000000
B2   B   0.222328628645043   0.777830980989195   0.125227957911700   1.0000000
B2   B   0.055673928422428   0.277795059705077   0.125118800614492   1.0000000
B2   B   0.389019754338108   0.278213226024894   0.125462450587320   1.0000000
B2   B   0.555746271534088   0.777744861361612   0.124514571494209   1.0000000
B2   B   0.888775841046815   0.777757141876391   0.124410621984008   1.0000000
B2   B   0.722261653132510   0.277804349567550   0.124209241134832   1.0000000
B2   B   0.055625949204496   0.944559808557123   0.624933583958245   1.0000000
B2   B   0.389086283616644   0.944664540750502   0.624941131999208   1.0000000
B2   B   0.222400994202655   0.444353263634079   0.625257099880971   1.0000000
B2   B   0.555622390095005   0.444477861714167   0.612838514812956   1.0000000
B2   B   0.722348254455537   0.944510915983402   0.625078984369714   1.0000000
B2   B   0.888775841046815   0.444352032503754   0.625589378015992   1.0000000
B2   B   0.055625949204496   0.444399473980703   0.125066416041752   1.0000000
B2   B   0.222399653439583   0.944693364154864   0.125095767078571   1.0000000
B2   B   0.555719676096317   0.944526504714824   0.124969205357536   1.0000000
B2   B   0.389019754338108   0.444139861646550   0.125462450587320   1.0000000
B2   B   0.888958309225990   0.944519458036779   0.124987074111419   1.0000000
B2   B   0.721737421675200   0.444117815693663   0.124733622649335   1.0000000
B2   B   0.222399653439583   0.611039622618057   0.624904232921436   1.0000000
B2   B   0.055673928422428   0.111212202050687   0.624881199385510   1.0000000
B2   B   0.555932674185580   0.610953584768330   0.624936541292099   1.0000000
B2   B   0.389204253730132   0.111634327502337   0.625019073177042   1.0000000
B2   B   0.888485134516021   0.610909233924673   0.625454919767557   1.0000000
B2   B   0.055491505678324   0.611048383973124   0.124959180781603   1.0000000
B2   B   0.722348254455537   0.111170671805479   0.625078984369714   1.0000000
B2   B   0.222400994202655   0.111381063901912   0.124742900119031   1.0000000
B2   B   0.389204253730132   0.610903259561135   0.124980926822958   1.0000000
B2   B   0.721737421675200   0.610952939314880   0.124733622649335   1.0000000
B2   B   0.555746271534088   0.111334743505804   0.124514571494209   1.0000000
B2   B   0.389204253730132   0.610903259561135   0.625019073177042   1.0000000
B2   B   0.889003922095559   0.111168627714452   0.125287267901195   1.0000000
B2   B   0.222328628645043   0.777830980989195   0.624772042088296   1.0000000
B2   B   0.055673928422428   0.277795059705077   0.624881199385510   1.0000000
B2   B   0.389019754338108   0.278213226024894   0.624537549412673   1.0000000
B2   B   0.555746271534088   0.777744861361612   0.625485428505786   1.0000000
B2   B   0.888775841046815   0.777757141876391   0.625589378015992   1.0000000
B2   B   0.722261653132510   0.277804349567550   0.625790758865171   1.0000000
B2   B   0.055491505678324   0.777776455038540   0.124959180781603   1.0000000
B2   B   0.389086283616644   0.777755076199474   0.125058868000791   1.0000000
B2   B   0.222373856650246   0.277853594991790   0.124540890492698   1.0000000
B2   B   0.722261653132510   0.777790636898294   0.124209241134832   1.0000000
B2   B   0.555932674185580   0.278312422750576   0.125063458707902   1.0000000
B2   B   0.888958309225990   0.277772184522537   0.124987074111419   1.0000000
B2   B   0.055625949204496   0.444399473980703   0.624933583958245   1.0000000
B2   B   0.222399653439583   0.944693364154864   0.624904232921436   1.0000000
B2   B   0.555719676096317   0.944526504714824   0.625030794642464   1.0000000
B2   B   0.389019754338108   0.444139861646550   0.624537549412673   1.0000000
B2   B   0.888958309225990   0.944519458036779   0.625012925888581   1.0000000
B2   B   0.055625949204496   0.944559808557123   0.125066416041752   1.0000000
B2   B   0.721737421675200   0.444117815693663   0.625266377350661   1.0000000
B2   B   0.389086283616644   0.944664540750502   0.125058868000791   1.0000000
B2   B   0.222400994202655   0.444353263634079   0.124742900119031   1.0000000
B2   B   0.222399653439583   0.611039622618057   0.125095767078571   1.0000000
B2   B   0.555622390095005   0.444477861714167   0.137161485187046   1.0000000
B2   B   0.722348254455537   0.944510915983402   0.124921015630285   1.0000000
B2   B   0.888775841046815   0.444352032503754   0.124410621984008   1.0000000
B2   B   0.055491505678324   0.611048383973124   0.625040819218395   1.0000000
B2   B   0.222400994202655   0.111381063901912   0.625257099880971   1.0000000
B2   B   0.721737421675200   0.610952939314880   0.625266377350661   1.0000000
B2   B   0.555746271534088   0.111334743505804   0.625485428505786   1.0000000
B2   B   0.889003922095559   0.111168627714452   0.624712732098805   1.0000000


