data_1
_audit_creation_method   'vasp2cif'
_cell_length_a    17.52789999999977
_cell_length_b    17.52789999999977
_cell_length_c    15.0
_cell_angle_alpha    90.0
_cell_angle_beta    90.0
_cell_angle_gamma    119.99999999999916

_symmetry_space_group_name_H-M    'P 1'
loop_
_atom_site_label
_atom_site_type_symbol
_atom_site_fract_x
_atom_site_fract_y
_atom_site_fract_z
_atom_site_occupancy
B2   B   0.904391532812013   0.952762563594603   0.111015649527585   1.0000000
B2   B   0.905454609870370   0.096663782551521   0.110978572262910   1.0000000
B2   B   0.905354882476667   0.239580313638374   0.111040636755219   1.0000000
B2   B   0.905048173032469   0.382162965137353   0.111026802492929   1.0000000
B2   B   0.904309536563136   0.524403442581603   0.111019967200968   1.0000000
B2   B   0.902256394176725   0.666432176084815   0.111031181597066   1.0000000
B2   B   0.903069627480018   0.809062141931537   0.111032714698947   1.0000000
B2   B   0.046557184638582   0.951105947928758   0.110997939382178   1.0000000
B2   B   0.046953396779842   0.094560420092049   0.110999795123057   1.0000000
B2   B   0.047911179939849   0.238639226769261   0.111011478743017   1.0000000
B2   B   0.048438406129393   0.381852113625959   0.111032663846828   1.0000000
B2   B   0.048587672115969   0.524201479713874   0.111031749025025   1.0000000
B2   B   0.047713278758975   0.666140489891938   0.111042813741875   1.0000000
B2   B   0.046772070158323   0.808366414864130   0.111017178615604   1.0000000
B2   B   0.189897499343570   0.950596886954457   0.111022834852637   1.0000000
B2   B   0.189032504582214   0.092941888713390   0.111038847467103   1.0000000
B2   B   0.189041726356961   0.236148120851040   0.110908832503158   1.0000000
B2   B   0.191120068580840   0.381040069723488   0.110874962715587   1.0000000
B2   B   0.192795477085906   0.524033841778476   0.110903215912677   1.0000000
B2   B   0.193315230755985   0.665895708585966   0.110990809718295   1.0000000
B2   B   0.190949462451922   0.808113236818924   0.110993518741750   1.0000000
B2   B   0.333589367185810   0.950807072165082   0.111010905354645   1.0000000
B2   B   0.332600099500306   0.093194246877618   0.111045644144065   1.0000000
B2   B   0.330914450931241   0.234339169475972   0.110882640730900   1.0000000
B2   B   0.330696910529985   0.376105520562614   0.111205224498171   1.0000000
B2   B   0.336632874351518   0.524603520620876   0.111084769720453   1.0000000
B2   B   0.340646666641376   0.665501831502928   0.110825480837333   1.0000000
B2   B   0.335217889096386   0.808002946787296   0.110980505912608   1.0000000
B2   B   0.477158258024282   0.952151791618606   0.111005700274331   1.0000000
B2   B   0.476182994152746   0.094600146584467   0.110999336937615   1.0000000
B2   B   0.475443448287319   0.236743292021062   0.110886027299293   1.0000000
B2   B   0.472382435882748   0.376550546457536   0.111382693291370   1.0000000
B2   B   0.495384357433251   0.667792808425087   0.111461521472192   1.0000000
B2   B   0.479251019298176   0.809406757485894   0.110999110150021   1.0000000
B2   B   0.620407458747705   0.954988011507356   0.111028553627712   1.0000000
B2   B   0.619533337649699   0.096751389961398   0.110968459052313   1.0000000
B2   B   0.618889276697723   0.239237959311121   0.111015864230563   1.0000000
B2   B   0.617783265003460   0.382379828541310   0.110885413176574   1.0000000
B2   B   0.617698211948821   0.527686340163416   0.111208669260379   1.0000000
B2   B   0.605834665542074   0.670176987253942   0.111589396530526   1.0000000
B2   B   0.621996083014348   0.814852565743514   0.110978923481579   1.0000000
B2   B   0.763354518485672   0.955184696458897   0.111011274623743   1.0000000
B2   B   0.762770104826198   0.097354445426301   0.110975426990894   1.0000000
B2   B   0.762206845011763   0.239747386317697   0.111018738775665   1.0000000
B2   B   0.761414231807712   0.382290244971309   0.111017300647504   1.0000000
B2   B   0.760105615928000   0.524775773121750   0.110956934883355   1.0000000
B2   B   0.756003060421109   0.667502224746001   0.110792432682199   1.0000000
B2   B   0.760726312048106   0.810801218893749   0.110953586555909   1.0000000
C2   C   0.467558503342202   0.512249777415263   0.111665903348431   1.0000000
C2   C   0.518734886155304   0.475139410734397   0.112216517715584   1.0000000
N2   N   0.951692506394691   0.904550851718089   0.111007049465650   1.0000000
N2   N   0.952282625144986   0.048139034102287   0.110972822013172   1.0000000
N2   N   0.952930125032969   0.191829715241323   0.110988744324460   1.0000000
N2   N   0.953007046898938   0.334675183524711   0.111021469100464   1.0000000
N2   N   0.952902440659123   0.477206882448768   0.111011619606676   1.0000000
N2   N   0.951793719471247   0.619456697808834   0.111026952918724   1.0000000
N2   N   0.951421425914633   0.761670256994386   0.111012000685963   1.0000000
N2   N   0.094600904708634   0.903580065478358   0.110990771800602   1.0000000
N2   N   0.094098722395576   0.046238339761845   0.110993364283822   1.0000000
N2   N   0.094256956588391   0.189632030322028   0.110980934164264   1.0000000
N2   N   0.095670878986639   0.333824182519187   0.110992206123991   1.0000000
N2   N   0.096691908057584   0.476900752280150   0.110988275267326   1.0000000
N2   N   0.096838266809475   0.619194035699403   0.111020196163123   1.0000000
N2   N   0.095352148992132   0.761225657086318   0.111006812139843   1.0000000
N2   N   0.238098749661789   0.903341754720880   0.110984608303395   1.0000000
N2   N   0.237178213081689   0.045658716228233   0.111025646840164   1.0000000
N2   N   0.235923593354140   0.187630002872798   0.110960095157835   1.0000000
N2   N   0.236131890336107   0.330913747370828   0.110806076222649   1.0000000
N2   N   0.240090795340815   0.476281642934974   0.110820227368309   1.0000000
N2   N   0.242588771770605   0.618986697015734   0.110894178430141   1.0000000
N2   N   0.239493037260337   0.761033775384703   0.110968702976695   1.0000000
N2   N   0.381691111953902   0.903709424743363   0.110992656893407   1.0000000
N2   N   0.380714158150989   0.046094303729931   0.110996379741968   1.0000000
N2   N   0.379700879969267   0.187947158340649   0.110960660916136   1.0000000
N2   N   0.377224392088958   0.328282548308632   0.110896507153992   1.0000000
N2   N   0.378569568658850   0.471243205513321   0.111720748663553   1.0000000
N2   N   0.391171068960718   0.618825858976669   0.110790632022201   1.0000000
N2   N   0.383655424434546   0.761129307319250   0.110913552531690   1.0000000
N2   N   0.525338568074431   0.905701929007573   0.111031189274162   1.0000000
N2   N   0.524237339958730   0.047741389731792   0.110956994213649   1.0000000
N2   N   0.523512960949758   0.189707117370480   0.110984014095387   1.0000000
N2   N   0.522252871259549   0.331121026288202   0.110774657864206   1.0000000
N2   N   0.528143534853842   0.764402765655051   0.111051758048525   1.0000000
N2   N   0.669170327395748   0.909589486082584   0.111009970188863   1.0000000
N2   N   0.667750405299156   0.050219537989011   0.110957502608947   1.0000000
N2   N   0.666979973007009   0.192017231346376   0.110987074348893   1.0000000
N2   N   0.666131176479667   0.334517230311837   0.110992749067197   1.0000000
N2   N   0.665431987803005   0.477921244518733   0.110859276826688   1.0000000
N2   N   0.659931562450569   0.622456790020663   0.110723245270923   1.0000000
N2   N   0.666992642027644   0.766063153037481   0.110961919587670   1.0000000
N2   N   0.809973896039626   0.906708143660525   0.111014841491708   1.0000000
N2   N   0.810847526145632   0.050325271130393   0.110947278834098   1.0000000
N2   N   0.810250116150071   0.192505849497816   0.110997249386876   1.0000000
N2   N   0.809700198883420   0.334853891454722   0.111010664805266   1.0000000
N2   N   0.809035975456346   0.477383950303009   0.110993114579071   1.0000000
N2   N   0.806480090545964   0.620056657498254   0.110943876027902   1.0000000
N2   N   0.808253821226250   0.762919939852866   0.110937764745420   1.0000000


