data_1
_audit_creation_method   'vasp2cif'
_cell_length_a    17.52789999999977
_cell_length_b    17.52789999999977
_cell_length_c    15.0
_cell_angle_alpha    90.0
_cell_angle_beta    90.0
_cell_angle_gamma    119.99999999999916

_symmetry_space_group_name_H-M    'P 1'
loop_
_atom_site_label
_atom_site_type_symbol
_atom_site_fract_x
_atom_site_fract_y
_atom_site_fract_z
_atom_site_occupancy
B2   B   0.905381920802500   0.953384591018290   0.111012345321856   1.0000000
B2   B   0.905030937398885   0.095306038340140   0.111028284552760   1.0000000
B2   B   0.905323115200834   0.237577176372390   0.111028890836867   1.0000000
B2   B   0.906334022510372   0.380349836758538   0.111022197372980   1.0000000
B2   B   0.910413791859057   0.524569479288629   0.111010422418957   1.0000000
B2   B   0.910653035522356   0.671726112166687   0.111012416440020   1.0000000
B2   B   0.906410444076440   0.811607408236219   0.111066509280155   1.0000000
B2   B   0.048207699324904   0.953083473151159   0.111009630075250   1.0000000
B2   B   0.047460661644083   0.095260190760809   0.110994406963760   1.0000000
B2   B   0.047415726962945   0.237795504693548   0.110987019660313   1.0000000
B2   B   0.048084568754157   0.380783848725689   0.111008263409283   1.0000000
B2   B   0.049893401320934   0.524210127722084   0.111011395455568   1.0000000
B2   B   0.049924164287391   0.667817439849140   0.111006936232011   1.0000000
B2   B   0.050104039705871   0.811577856239382   0.111027932099574   1.0000000
B2   B   0.190781007698725   0.952452466212161   0.110996173977294   1.0000000
B2   B   0.189751516969537   0.094757451642097   0.111022434536739   1.0000000
B2   B   0.189122640368601   0.237392854047454   0.110998923699158   1.0000000
B2   B   0.189507634139917   0.380598962148531   0.110981750091914   1.0000000
B2   B   0.190523804661909   0.524077196124880   0.111051118108288   1.0000000
B2   B   0.191308234947825   0.667197973288984   0.111045219745210   1.0000000
B2   B   0.191383099591790   0.810002631041881   0.110990813342456   1.0000000
B2   B   0.333203802391433   0.951874397498703   0.111025810222546   1.0000000
B2   B   0.331653531239507   0.093308017236282   0.111042641548534   1.0000000
B2   B   0.330803044087230   0.236713949882464   0.111039480319192   1.0000000
B2   B   0.330398112803858   0.379356353079911   0.110999479255683   1.0000000
B2   B   0.331107770248390   0.524265012587236   0.110977622886022   1.0000000
B2   B   0.333060026231467   0.667239641845179   0.111079640219785   1.0000000
B2   B   0.333444634253470   0.809691134497114   0.111054279243266   1.0000000
B2   B   0.475887291431048   0.951725694820658   0.111024090568618   1.0000000
B2   B   0.475400177227473   0.093282487764845   0.111025487563834   1.0000000
B2   B   0.471567447004676   0.232482555357610   0.111026160713120   1.0000000
B2   B   0.471060542736706   0.375619102801687   0.111131812126405   1.0000000
B2   B   0.469674367467086   0.525878181320035   0.111090476380441   1.0000000
B2   B   0.475150036638441   0.667911748458933   0.111016176164621   1.0000000
B2   B   0.475856138845495   0.809902718246162   0.111042955077440   1.0000000
B2   B   0.618905501180222   0.952243317797311   0.111014599316579   1.0000000
B2   B   0.618910831143229   0.092686841323329   0.111003298950509   1.0000000
B2   B   0.619049147845227   0.231874046041613   0.110961854427372   1.0000000
B2   B   0.608172764632266   0.357362046885763   0.111079070572863   1.0000000
B2   B   0.608294149945154   0.534989018470880   0.111230783219966   1.0000000
B2   B   0.619760139399673   0.672781286588736   0.111000224683422   1.0000000
B2   B   0.618941716984366   0.811791864671714   0.111008161231001   1.0000000
B2   B   0.762256294385612   0.953152607118726   0.110999377380221   1.0000000
B2   B   0.762246167005517   0.094682889480544   0.111036792861455   1.0000000
B2   B   0.762753336049456   0.236402204425415   0.111004798764624   1.0000000
B2   B   0.763468815660175   0.378425162048884   0.111008820317345   1.0000000
B2   B   0.782641071099542   0.534256124917577   0.111036125476668   1.0000000
B2   B   0.763236448161427   0.670449954306504   0.111011180006580   1.0000000
B2   B   0.762825844611099   0.811986183891101   0.111028668807214   1.0000000
N2   N   0.953249253929238   0.906146556768430   0.111013684845743   1.0000000
N2   N   0.952632465124843   0.048029451468925   0.110992508103632   1.0000000
N2   N   0.952625284261641   0.190191663430724   0.110999654039073   1.0000000
N2   N   0.953252560644160   0.332723834146171   0.111003666422603   1.0000000
N2   N   0.955627417992549   0.475913504825006   0.110994856963640   1.0000000
N2   N   0.955440819901564   0.620552048960035   0.110996281762238   1.0000000
N2   N   0.955876681042378   0.765619091860330   0.111028053758438   1.0000000
N2   N   0.096288539290981   0.905955341561653   0.110995600696198   1.0000000
N2   N   0.095012275079743   0.047763550106637   0.110990028736801   1.0000000
N2   N   0.094499202652349   0.190085797153714   0.110973269998821   1.0000000
N2   N   0.094916323428552   0.332914776483080   0.110971902027575   1.0000000
N2   N   0.096111391588230   0.476037182077544   0.111008343217866   1.0000000
N2   N   0.096675526750248   0.619505242356950   0.110996807309440   1.0000000
N2   N   0.096735936491846   0.762928479966664   0.110987773644813   1.0000000
N2   N   0.238358304646198   0.904836825055823   0.110973174160330   1.0000000
N2   N   0.237172120966252   0.046916416240924   0.111003853343770   1.0000000
N2   N   0.236320669380697   0.189588499391475   0.111009326479303   1.0000000
N2   N   0.236112817575704   0.332473403218980   0.110962944317895   1.0000000
N2   N   0.236913028000425   0.476009258019712   0.110990417100919   1.0000000
N2   N   0.238285337123875   0.619300230030838   0.111061091009801   1.0000000
N2   N   0.238628335434723   0.762208153105850   0.111016906303096   1.0000000
N2   N   0.380879957159706   0.904491060911952   0.111013752270566   1.0000000
N2   N   0.380250700492009   0.046555163452731   0.111022564645509   1.0000000
N2   N   0.377594298073131   0.187602627100006   0.111029392972084   1.0000000
N2   N   0.376969233608347   0.331805676723109   0.111036712063344   1.0000000
N2   N   0.377152920608783   0.475891418577420   0.110957150264922   1.0000000
N2   N   0.380157672351860   0.619523941423886   0.111010051029318   1.0000000
N2   N   0.380861227568077   0.762173367627832   0.111055776184075   1.0000000
N2   N   0.523714722559518   0.904644853363986   0.111003876106903   1.0000000
N2   N   0.523597919392343   0.046328877642002   0.110996335811450   1.0000000
N2   N   0.522831993132974   0.187811903032946   0.110979560729831   1.0000000
N2   N   0.517013069934144   0.326828238377663   0.111019728143337   1.0000000
N2   N   0.522672616944367   0.620364816482770   0.111001162989924   1.0000000
N2   N   0.523530861124432   0.762777635822012   0.111006889326049   1.0000000
N2   N   0.667001825861048   0.905944339514669   0.110989329637815   1.0000000
N2   N   0.667031902080324   0.046528661376270   0.111005712782188   1.0000000
N2   N   0.667458409848877   0.186668393200894   0.110971763298283   1.0000000
N2   N   0.668037772718470   0.325215799136349   0.110956061249497   1.0000000
N2   N   0.667702903468370   0.628030214662198   0.110983126375417   1.0000000
N2   N   0.667433247207631   0.766235174677956   0.110989118840051   1.0000000
N2   N   0.810378226491714   0.906397327314977   0.110991686390619   1.0000000
N2   N   0.810027808374729   0.047777214908834   0.111011861895801   1.0000000
N2   N   0.810385710032671   0.189545663477396   0.111012748887490   1.0000000
N2   N   0.811220532372245   0.331789751616060   0.110998951974269   1.0000000
N2   N   0.816476516741335   0.475928082526688   0.110983366203408   1.0000000
N2   N   0.816999048043254   0.626567432673946   0.110974119575366   1.0000000
N2   N   0.811060951674145   0.764863042367689   0.111027982935793   1.0000000
O2   O   0.513161913398503   0.477218636986159   0.111375590105276   1.0000000
Se2   Se   0.665000995265587   0.475012083891561   0.111272531143674   1.0000000


