data_1
_audit_creation_method   'vasp2cif'
_cell_length_a    14.93631414619966
_cell_length_b    14.936314146199727
_cell_length_c    13.341276283792837
_cell_angle_alpha    90.0
_cell_angle_beta    90.0
_cell_angle_gamma    119.99999999999984

_symmetry_space_group_name_H-M    'P 1'
loop_
_atom_site_label
_atom_site_type_symbol
_atom_site_fract_x
_atom_site_fract_y
_atom_site_fract_z
_atom_site_occupancy
Si2   Si   0.501317990856095   0.417325662094711   0.375000000000000   1.0000000
N2   N   0.111062969424255   0.055536313627391   0.124784438798324   1.0000000
N2   N   0.611350766580676   0.555917283224240   0.125826282168014   1.0000000
N2   N   0.444517823601368   0.055589924551988   0.124683062277694   1.0000000
N2   N   0.944460019945742   0.555542727409580   0.124610754876225   1.0000000
N2   N   0.777851078476290   0.055592205904809   0.124803278289632   1.0000000
N2   N   0.111136087177220   0.722234710255265   0.625102857046543   1.0000000
N2   N   0.444517823601366   0.722261232382703   0.625316937722294   1.0000000
N2   N   0.277594966742327   0.222123923422893   0.625511375747714   1.0000000
N2   N   0.777861100400482   0.722373321583080   0.625772787763169   1.0000000
N2   N   0.611220268239015   0.222175878658048   0.625721426925079   1.0000000
N2   N   0.944445870592680   0.222203260664712   0.625088598376182   1.0000000
N2   N   0.277831362027542   0.722241769117372   0.124923617979069   1.0000000
N2   N   0.110997625013471   0.222165479173400   0.124718720028992   1.0000000
N2   N   0.444492979501950   0.222247898843859   0.125280148480188   1.0000000
N2   N   0.611220268239015   0.722377722914297   0.124278573074927   1.0000000
N2   N   0.944460019945749   0.722250625869497   0.124610754876225   1.0000000
N2   N   0.777859085093680   0.222185026748126   0.124562979941426   1.0000000
N2   N   0.111132708520038   0.888915584021930   0.625145565370752   1.0000000
N2   N   0.444523339615594   0.888928336474458   0.625174103619942   1.0000000
N2   N   0.277594966742327   0.388804376652760   0.625511375747714   1.0000000
N2   N   0.611350766580676   0.388766816689757   0.624173717831987   1.0000000
N2   N   0.777859085093680   0.889007391678870   0.625437020058574   1.0000000
N2   N   0.944469587384734   0.388864344846776   0.625253321401812   1.0000000
N2   N   0.111062969424255   0.388859989130190   0.124784438798324   1.0000000
N2   N   0.277831362027542   0.888922926243504   0.124923617979069   1.0000000
N2   N   0.611200655570248   0.888965603069024   0.124638172050406   1.0000000
N2   N   0.443950764605912   0.388642048969617   0.126242758930118   1.0000000
N2   N   0.944469587384734   0.888938575871290   0.124746678598190   1.0000000
N2   N   0.777861100400482   0.388821112150714   0.124227212236827   1.0000000
N2   N   0.277805224967468   0.555553135519511   0.625280805445039   1.0000000
N2   N   0.111062969424255   0.055536313627391   0.625215561201669   1.0000000
N2   N   0.611350766580676   0.555917283224247   0.624173717831987   1.0000000
N2   N   0.444517823601368   0.055589924551988   0.625316937722294   1.0000000
N2   N   0.944460019945742   0.555542727409580   0.625389245123779   1.0000000
N2   N   0.111132708520038   0.555550457831444   0.124854434629253   1.0000000
N2   N   0.777851078476290   0.055592205904809   0.625196721710366   1.0000000
N2   N   0.277805224967468   0.055585422781299   0.124719194554956   1.0000000
N2   N   0.444492979501950   0.555578413991415   0.125280148480188   1.0000000
N2   N   0.777825817744044   0.555579575538679   0.124883204773536   1.0000000
N2   N   0.611200655570248   0.055568385834551   0.124638172050406   1.0000000
N2   N   0.444492979501950   0.555578413991415   0.624719851519809   1.0000000
N2   N   0.944445870592680   0.055575943261309   0.124911401623804   1.0000000
N2   N   0.277831362027542   0.722241769117372   0.625076382020932   1.0000000
N2   N   0.110997625013471   0.222165479173401   0.625281279971022   1.0000000
N2   N   0.444492979501950   0.222247898843861   0.624719851519809   1.0000000
N2   N   0.611220268239015   0.722377722914297   0.625721426925079   1.0000000
N2   N   0.944460019945742   0.722250625869497   0.625389245123779   1.0000000
N2   N   0.777859085093680   0.222185026748126   0.625437020058574   1.0000000
N2   N   0.111136087177220   0.722234710255265   0.124897142953462   1.0000000
N2   N   0.444517823601366   0.722261232382703   0.124683062277694   1.0000000
N2   N   0.277594966742327   0.222123923422893   0.124488624252274   1.0000000
N2   N   0.777861100400482   0.722373321583080   0.124227212236827   1.0000000
N2   N   0.611220268239015   0.222175878658048   0.124278573074927   1.0000000
N2   N   0.944445870592680   0.222203260664712   0.124911401623804   1.0000000
N2   N   0.111062969424255   0.388859989130190   0.625215561201669   1.0000000
N2   N   0.277831362027542   0.888922926243504   0.625076382020932   1.0000000
N2   N   0.611200655570248   0.888965603069024   0.625361827949596   1.0000000
N2   N   0.443950764605912   0.388642048969617   0.623757241069893   1.0000000
N2   N   0.944469587384734   0.888938575871290   0.625253321401809   1.0000000
N2   N   0.111132708520038   0.888915584021930   0.124854434629253   1.0000000
N2   N   0.777861100400482   0.388821112150714   0.625772787763169   1.0000000
N2   N   0.444523339615594   0.888928336474458   0.124825896380055   1.0000000
N2   N   0.277594966742327   0.388804376652760   0.124488624252274   1.0000000
N2   N   0.277805224967468   0.555553135519511   0.124719194554956   1.0000000
N2   N   0.611350766580676   0.388766816689757   0.125826282168014   1.0000000
N2   N   0.777859085093680   0.889007391678870   0.124562979941426   1.0000000
N2   N   0.944469587384734   0.388864344846776   0.124746678598190   1.0000000
N2   N   0.111132708520037   0.555550457831444   0.625145565370752   1.0000000
N2   N   0.277805224967468   0.055585422781299   0.625280805445039   1.0000000
N2   N   0.777825817744044   0.555579575538679   0.625116795226461   1.0000000
N2   N   0.611200655570248   0.055568385834551   0.625361827949596   1.0000000
N2   N   0.944445870592680   0.055575943261309   0.625088598376182   1.0000000
N2   N   0.059535024603959   0.113312360290014   0.375000000000000   1.0000000
N2   N   0.555936619255647   0.621843823283031   0.375000000000000   1.0000000
N2   N   0.388322796241516   0.106274494671442   0.375000000000000   1.0000000
N2   N   0.885106573925288   0.609219953629306   0.375000000000000   1.0000000
N2   N   0.724634088268185   0.111346650288104   0.375000000000000   1.0000000
N2   N   0.055587918551881   0.777790696038990   0.875000000000000   1.0000000
N2   N   0.388886477813553   0.777786950341208   0.875000000000000   1.0000000
N2   N   0.222249442611673   0.277791387972505   0.875000000000000   1.0000000
N2   N   0.722226705958542   0.777767131694103   0.875000000000000   1.0000000
N2   N   0.555547592844660   0.277771001863859   0.875000000000000   1.0000000
N2   N   0.888900871497016   0.277793199540440   0.875000000000000   1.0000000
N2   N   0.220538887173686   0.776936110253516   0.375000000000000   1.0000000
N2   N   0.059535024603959   0.279555997647287   0.375000000000000   1.0000000
N2   N   0.395380787614961   0.276760565468906   0.375000000000000   1.0000000
N2   N   0.556133582587868   0.782664336917213   0.375000000000000   1.0000000
N2   N   0.888065185975613   0.777689769153213   0.375000000000000   1.0000000
N2   N   0.723957241518788   0.276140708444459   0.375000000000000   1.0000000
N2   N   0.055571259291284   0.944443650485705   0.875000000000000   1.0000000
N2   N   0.388886477813553   0.944432860805668   0.875000000000000   1.0000000
N2   N   0.222235599502761   0.444463798576275   0.875000000000000   1.0000000
N2   N   0.555563016732356   0.444448175032842   0.875000000000000   1.0000000
N2   N   0.722222161162912   0.944439834327765   0.875000000000000   1.0000000
N2   N   0.888916010279732   0.444468233041643   0.875000000000000   1.0000000
N2   N   0.056543585904669   0.445006447453679   0.375000000000000   1.0000000
N2   N   0.221146908663064   0.942662603166762   0.375000000000000   1.0000000
N2   N   0.556255971376198   0.944794652354764   0.375000000000000   1.0000000
N2   N   0.395380787614961   0.451953555479394   0.375000000000000   1.0000000
N2   N   0.891596213325441   0.946523813710775   0.375000000000000   1.0000000
N2   N   0.718101210448308   0.440849805320201   0.375000000000000   1.0000000
N2   N   0.222226196847663   0.611126902608772   0.875000000000000   1.0000000
N2   N   0.055572966473291   0.111115366358858   0.875000000000000   1.0000000
N2   N   0.555547592844660   0.611109924314123   0.875000000000000   1.0000000
N2   N   0.388884009759785   0.111086930319905   0.875000000000000   1.0000000
N2   N   0.888943819336805   0.611138576335084   0.875000000000000   1.0000000
N2   N   0.053562661554137   0.610427677455193   0.375000000000000   1.0000000
N2   N   0.722222161162912   0.111115660168474   0.875000000000000   1.0000000
N2   N   0.225152868913334   0.111916112740957   0.375000000000000   1.0000000
N2   N   0.388322796241516   0.615381634903412   0.375000000000000   1.0000000
N2   N   0.718101210448303   0.610584738461448   0.375000000000000   1.0000000
N2   N   0.556133582587868   0.106802579003990   0.375000000000000   1.0000000
N2   N   0.388884009759785   0.611130412773224   0.875000000000000   1.0000000
N2   N   0.892385217297378   0.112859275315356   0.375000000000000   1.0000000
N2   N   0.222234488319897   0.777783910826613   0.875000000000000   1.0000000
N2   N   0.055572966473291   0.277790933447767   0.875000000000000   1.0000000
N2   N   0.388907461477648   0.277766705508978   0.875000000000000   1.0000000
N2   N   0.555549080595917   0.777776701918839   0.875000000000000   1.0000000
N2   N   0.888916010279732   0.777781110571440   0.875000000000000   1.0000000
N2   N   0.722226705958542   0.277792907597756   0.875000000000000   1.0000000
N2   N   0.053562661554137   0.776468317432293   0.375000000000000   1.0000000
N2   N   0.388053109917736   0.778912859833940   0.375000000000000   1.0000000
N2   N   0.228248287263416   0.280790810298369   0.375000000000000   1.0000000
N2   N   0.723957241518788   0.781149866407643   0.375000000000000   1.0000000
N2   N   0.555936619255642   0.267426129305947   0.375000000000000   1.0000000
N2   N   0.891596213325441   0.278405732948013   0.375000000000000   1.0000000
N2   N   0.055571259291284   0.444460942138905   0.875000000000000   1.0000000
N2   N   0.222226196847663   0.944432627572219   0.875000000000000   1.0000000
N2   N   0.555550294275883   0.944441813804615   0.875000000000000   1.0000000
N2   N   0.388907461477648   0.444474089302009   0.875000000000000   1.0000000
N2   N   0.888900871497016   0.944441005289911   0.875000000000000   1.0000000
N2   N   0.056543585904669   0.944870471784323   0.375000000000000   1.0000000
N2   N   0.722255759595119   0.444475581795871   0.875000000000000   1.0000000
N2   N   0.388053109917736   0.942473583417128   0.375000000000000   1.0000000
N2   N   0.225152868913334   0.446570089505719   0.375000000000000   1.0000000
N2   N   0.221146908663063   0.611817638829633   0.375000000000000   1.0000000
N2   N   0.724634088268185   0.946620771313405   0.375000000000000   1.0000000
N2   N   0.888065185975613   0.443708750155728   0.375000000000000   1.0000000
N2   N   0.055587918551881   0.611130555846221   0.875000000000000   1.0000000
N2   N   0.222235599502762   0.111105134259813   0.875000000000000   1.0000000
N2   N   0.722255759595119   0.611113511132570   0.875000000000000   1.0000000
N2   N   0.555549080595917   0.111105712010415   0.875000000000000   1.0000000
N2   N   0.888899167940253   0.111116250636797   0.875000000000000   1.0000000
B2   B   0.114452017431587   0.056981745087924   0.375000000000000   1.0000000
B2   B   0.603293945755581   0.558827160040250   0.375000000000000   1.0000000
B2   B   0.444809652531941   0.052984204057182   0.375000000000000   1.0000000
B2   B   0.941683440205874   0.554659053201593   0.375000000000000   1.0000000
B2   B   0.780991335614784   0.057162334474056   0.375000000000000   1.0000000
B2   B   0.111110789264434   0.722222061298875   0.875000000000000   1.0000000
B2   B   0.444444529715561   0.722156023610642   0.875000000000000   1.0000000
B2   B   0.277945727186109   0.222328324034073   0.875000000000000   1.0000000
B2   B   0.777697035858747   0.722074014157530   0.875000000000000   1.0000000
B2   B   0.611056644628135   0.222325616096257   0.875000000000000   1.0000000
B2   B   0.944478150476451   0.222261127095296   0.875000000000000   1.0000000
B2   B   0.276894428620296   0.722473568438121   0.375000000000000   1.0000000
B2   B   0.117486027268906   0.225409680301116   0.375000000000000   1.0000000
B2   B   0.445188475139051   0.217451307779941   0.375000000000000   1.0000000
B2   B   0.612458812890742   0.728636222368834   0.375000000000000   1.0000000
B2   B   0.941683440205874   0.720357720337624   0.375000000000000   1.0000000
B2   B   0.780264217075245   0.222564435063765   0.375000000000000   1.0000000
B2   B   0.111132929736530   0.888892935117812   0.875000000000000   1.0000000
B2   B   0.444433418578448   0.888883375955891   0.875000000000000   1.0000000
B2   B   0.277945727186109   0.388950736485369   0.875000000000000   1.0000000
B2   B   0.611043816151612   0.388966071821279   0.875000000000000   1.0000000
B2   B   0.777736465625927   0.888787084154542   0.875000000000000   1.0000000
B2   B   0.944436898071491   0.388935752308234   0.875000000000000   1.0000000
B2   B   0.114452017431587   0.390803605676990   0.375000000000000   1.0000000
B2   B   0.276894428620296   0.887754193515500   0.375000000000000   1.0000000
B2   B   0.613009724531199   0.891664712968700   0.375000000000000   1.0000000
B2   B   0.945163140650707   0.889035457506277   0.375000000000000   1.0000000
B2   B   0.775686392670647   0.387903500061106   0.375000000000000   1.0000000
B2   B   0.277849812622507   0.555556933113804   0.875000000000000   1.0000000
B2   B   0.111195359674985   0.055595572735930   0.875000000000000   1.0000000
B2   B   0.611043816151612   0.555411077663673   0.875000000000000   1.0000000
B2   B   0.444444529715561   0.055621839438247   0.875000000000000   1.0000000
B2   B   0.944408457357164   0.555569741926583   0.875000000000000   1.0000000
B2   B   0.110252221474717   0.555856959869651   0.375000000000000   1.0000000
B2   B   0.777758973982336   0.055546153657842   0.875000000000000   1.0000000
B2   B   0.278149871977657   0.054106766656286   0.375000000000000   1.0000000
B2   B   0.445188475139051   0.561070500692442   0.375000000000000   1.0000000
B2   B   0.771247319684184   0.552290326508766   0.375000000000000   1.0000000
B2   B   0.613009724531199   0.054678344895841   0.375000000000000   1.0000000
B2   B   0.444502427830018   0.555496175768026   0.875000000000000   1.0000000
B2   B   0.948426195950839   0.057725469899761   0.375000000000000   1.0000000
B2   B   0.277794251827314   0.722213787484552   0.875000000000000   1.0000000
B2   B   0.111240586526888   0.222286959930109   0.875000000000000   1.0000000
B2   B   0.444502427830018   0.222339585395332   0.875000000000000   1.0000000
B2   B   0.611056644628135   0.722064361865219   0.875000000000000   1.0000000
B2   B   0.944408457357164   0.722172048763914   0.875000000000000   1.0000000
B2   B   0.777736465625927   0.222282714804710   0.875000000000000   1.0000000
B2   B   0.109234709760952   0.721284021547145   0.375000000000000   1.0000000
B2   B   0.444809652531941   0.725158781808099   0.375000000000000   1.0000000
B2   B   0.286152633819977   0.225824237809393   0.375000000000000   1.0000000
B2   B   0.775686392670645   0.721116225942862   0.375000000000000   1.0000000
B2   B   0.612458812890739   0.217155923855228   0.375000000000000   1.0000000
B2   B   0.948426195950839   0.224034059384416   0.375000000000000   1.0000000
B2   B   0.111195359674985   0.388933120272388   0.875000000000000   1.0000000
B2   B   0.277794251827314   0.888913797676090   0.875000000000000   1.0000000
B2   B   0.611075811647285   0.888823116661831   0.875000000000000   1.0000000
B2   B   0.444589038066635   0.388961185699982   0.875000000000000   1.0000000
B2   B   0.944436898071491   0.888834479096581   0.875000000000000   1.0000000
B2   B   0.110252221474718   0.887728594938402   0.375000000000000   1.0000000
B2   B   0.777697035858747   0.388956355034551   0.875000000000000   1.0000000
B2   B   0.444727263771480   0.889030298552401   0.375000000000000   1.0000000
B2   B   0.286152633819977   0.393661729343915   0.375000000000000   1.0000000
B2   B   0.278149871977657   0.557376438654701   0.375000000000000   1.0000000
B2   B   0.603293945755583   0.377800119048658   0.375000000000000   1.0000000
B2   B   0.780264217075245   0.891033115344815   0.375000000000000   1.0000000
B2   B   0.945163140650707   0.389461016477766   0.375000000000000   1.0000000
B2   B   0.111132929736530   0.555573327952050   0.875000000000000   1.0000000
B2   B   0.277849812622507   0.055626212842044   0.875000000000000   1.0000000
B2   B   0.777690123035175   0.555511728184255   0.875000000000000   1.0000000
B2   B   0.611075811647285   0.055586028318788   0.875000000000000   1.0000000
B2   B   0.944478150476451   0.055550356714483   0.875000000000000   1.0000000
B2   B   0.055620124637469   0.111181443917261   0.125195147817377   1.0000000
B2   B   0.555770822147993   0.610844676877538   0.126183707693893   1.0000000
B2   B   0.389142984658879   0.111580151375460   0.125392762450293   1.0000000
B2   B   0.888490267155681   0.610911800244507   0.125114541691058   1.0000000
B2   B   0.722279756705434   0.111170945775549   0.125008786690559   1.0000000
B2   B   0.055438270346689   0.777748723192021   0.624891866008999   1.0000000
B2   B   0.389043019600595   0.777737713250943   0.624862654566235   1.0000000
B2   B   0.222365295467121   0.277849314400232   0.624761258359818   1.0000000
B2   B   0.722167938167508   0.777660747900052   0.625137797460944   1.0000000
B2   B   0.555770822147993   0.278259478603787   0.623816292306111   1.0000000
B2   B   0.888876322324843   0.277769998698099   0.624919937193361   1.0000000
B2   B   0.222272594860567   0.777802964096944   0.125223198812765   1.0000000
B2   B   0.055620124637469   0.277772014053541   0.125195147817377   1.0000000
B2   B   0.389055831089474   0.278178862127749   0.126556256933009   1.0000000
B2   B   0.555688646580566   0.777667090905398   0.124941844299318   1.0000000
B2   B   0.888687467553638   0.777671449293321   0.124903734637326   1.0000000
B2   B   0.722167938167508   0.277840523600801   0.124862202539056   1.0000000
B2   B   0.055555852106670   0.944508441903120   0.624842190069894   1.0000000
B2   B   0.389043019600595   0.944638639682978   0.624862654566235   1.0000000
B2   B   0.222364534854256   0.444339415356737   0.624853949688010   1.0000000
B2   B   0.555435340129786   0.444384336731557   0.615318422001993   1.0000000
B2   B   0.722279756705434   0.944442144263231   0.624991213309448   1.0000000
B2   B   0.888687467553628   0.444349351593648   0.625096265362672   1.0000000
B2   B   0.055555852106670   0.444380743536883   0.125157809930113   1.0000000
B2   B   0.222335924453697   0.944652180026529   0.125170242614316   1.0000000
B2   B   0.555676858629608   0.944505095981471   0.125043730744985   1.0000000
B2   B   0.389055831089476   0.444210302295066   0.126556256933009   1.0000000
B2   B   0.888876322324843   0.944439656960082   0.125080062806624   1.0000000
B2   B   0.721729700657942   0.444216520742587   0.125788992717745   1.0000000
B2   B   0.222335924453697   0.611017077760515   0.624829757385670   1.0000000
B2   B   0.055620124637469   0.111181443917261   0.624804852182621   1.0000000
B2   B   0.555770822147993   0.610844676877541   0.623816292306111   1.0000000
B2   B   0.389142984658879   0.111580151375461   0.624607237549704   1.0000000
B2   B   0.888490267155681   0.610911800244507   0.624885458308938   1.0000000
B2   B   0.055438270346689   0.611022880488003   0.125108133990975   1.0000000
B2   B   0.722279756705434   0.111170945775549   0.624991213309448   1.0000000
B2   B   0.222364534854256   0.111358452830853   0.125146050311984   1.0000000
B2   B   0.389142984658879   0.610896166616766   0.125392762450293   1.0000000
B2   B   0.721729700657942   0.610846513248703   0.125788992717745   1.0000000
B2   B   0.555688646580566   0.111354889008504   0.124941844299318   1.0000000
B2   B   0.389142984658879   0.610896166616766   0.624607237549704   1.0000000
B2   B   0.888930723034355   0.111132028183849   0.125201376974226   1.0000000
B2   B   0.222272594860567   0.777802964096944   0.624776801187232   1.0000000
B2   B   0.055620124637469   0.277772014053541   0.624804852182621   1.0000000
B2   B   0.389055831089476   0.278178862127749   0.623443743066984   1.0000000
B2   B   0.555688646580566   0.777667090905398   0.625058155700693   1.0000000
B2   B   0.888687467553628   0.777671449293321   0.625096265362672   1.0000000
B2   B   0.722167938167508   0.277840523600801   0.625137797460944   1.0000000
B2   B   0.055438270346689   0.777748723192021   0.125108133990975   1.0000000
B2   B   0.389043019600595   0.777737713250943   0.125137345433770   1.0000000
B2   B   0.222365295467121   0.277849314400232   0.125238741640177   1.0000000
B2   B   0.722167938167508   0.777660747900052   0.124862202539056   1.0000000
B2   B   0.555770822147993   0.278259478603787   0.126183707693892   1.0000000
B2   B   0.888876322324843   0.277769998698099   0.125080062806624   1.0000000
B2   B   0.055555852106670   0.444380743536883   0.624842190069894   1.0000000
B2   B   0.222335924453697   0.944652180026529   0.624829757385670   1.0000000
B2   B   0.555676858629608   0.944505095981471   0.624956269255006   1.0000000
B2   B   0.389055831089476   0.444210302295066   0.623443743066984   1.0000000
B2   B   0.888876322324843   0.944439656960082   0.624919937193361   1.0000000
B2   B   0.055555852106670   0.944508441903120   0.125157809930113   1.0000000
B2   B   0.721729700657942   0.444216520742587   0.624211007282245   1.0000000
B2   B   0.389043019600595   0.944638639682978   0.125137345433770   1.0000000
B2   B   0.222364534854256   0.444339415356737   0.125146050311984   1.0000000
B2   B   0.222335924453697   0.611017077760515   0.125170242614316   1.0000000
B2   B   0.555435340129786   0.444384336731557   0.134681577998006   1.0000000
B2   B   0.722279756705434   0.944442144263231   0.125008786690559   1.0000000
B2   B   0.888687467553628   0.444349351593648   0.124903734637326   1.0000000
B2   B   0.055438270346689   0.611022880488003   0.624891866008999   1.0000000
B2   B   0.222364534854256   0.111358452830853   0.624853949688010   1.0000000
B2   B   0.721729700657942   0.610846513248703   0.624211007282245   1.0000000
B2   B   0.555688646580566   0.111354889008504   0.625058155700693   1.0000000
B2   B   0.888930723034355   0.111132028183849   0.624798623025776   1.0000000


