data_1
_audit_creation_method   'vasp2cif'
_cell_length_a    17.52789999999977
_cell_length_b    17.52789999999977
_cell_length_c    15.0
_cell_angle_alpha    90.0
_cell_angle_beta    90.0
_cell_angle_gamma    119.99999999999916

_symmetry_space_group_name_H-M    'P 1'
loop_
_atom_site_label
_atom_site_type_symbol
_atom_site_fract_x
_atom_site_fract_y
_atom_site_fract_z
_atom_site_occupancy
Se2   Se   0.496992294053427   0.503009107863568   0.111364884071701   1.0000000
B2   B   0.905935345877341   0.953373472548735   0.111009868561498   1.0000000
B2   B   0.904476743514955   0.095525277681074   0.110992301788593   1.0000000
B2   B   0.904119440068636   0.238224885062952   0.110960534073030   1.0000000
B2   B   0.904265268256964   0.380952521616865   0.110927097399351   1.0000000
B2   B   0.904983240096122   0.523822067307549   0.111033420239028   1.0000000
B2   B   0.906700413070094   0.667245585182984   0.111175661083657   1.0000000
B2   B   0.907633456455395   0.811305673469223   0.111082218100141   1.0000000
B2   B   0.048182134306499   0.951819886889536   0.111046219947291   1.0000000
B2   B   0.046628548647229   0.094066675318629   0.111009868561498   1.0000000
B2   B   0.046262349927822   0.237262366435271   0.110956034678340   1.0000000
B2   B   0.046889332983844   0.380504607528587   0.110978637189902   1.0000000
B2   B   0.048058912333437   0.523358861834404   0.111013838453266   1.0000000
B2   B   0.048826310815441   0.666215679391377   0.111137294418691   1.0000000
B2   B   0.048963002739015   0.809195663170443   0.111143220175120   1.0000000
B2   B   0.190806358025573   0.951039018456950   0.111143220175120   1.0000000
B2   B   0.188696347726768   0.092368564740634   0.111082218100141   1.0000000
B2   B   0.187061701025923   0.234580719438911   0.110963120923634   1.0000000
B2   B   0.188518204997443   0.379136234456036   0.110971043174678   1.0000000
B2   B   0.191187327474260   0.522681258311952   0.111052365153157   1.0000000
B2   B   0.191703347301354   0.665660331250498   0.111099669075482   1.0000000
B2   B   0.191484695341924   0.808517325854069   0.111100083317633   1.0000000
B2   B   0.333786341805605   0.951175710380553   0.111137294418691   1.0000000
B2   B   0.332756436014004   0.093301608125888   0.111175661083665   1.0000000
B2   B   0.328387535906730   0.232164030610046   0.110989550847758   1.0000000
B2   B   0.326717474408394   0.374362720805038   0.110897544982110   1.0000000
B2   B   0.334492852653461   0.521745991573104   0.111068181830410   1.0000000
B2   B   0.334909602685757   0.665092418511237   0.111124320919642   1.0000000
B2   B   0.334341689946493   0.808298673894656   0.111099669075482   1.0000000
B2   B   0.476643159362570   0.951943108862553   0.111013838453266   1.0000000
B2   B   0.476179953889448   0.095018781099890   0.111033420239028   1.0000000
B2   B   0.475122930485025   0.237219788599073   0.111037157384582   1.0000000
B2   B   0.465275292492197   0.368186767267883   0.111212026353985   1.0000000
B2   B   0.478256029623864   0.665509168543578   0.111068181830410   1.0000000
B2   B   0.477320762885049   0.808814693721749   0.111052365153157   1.0000000
B2   B   0.619497413667435   0.953112688212153   0.110978637189902   1.0000000
B2   B   0.619049499579131   0.095736752939037   0.110927097399351   1.0000000
B2   B   0.619265878859381   0.238966795287578   0.110981304708008   1.0000000
B2   B   0.618432363337675   0.381569657858318   0.110720619876255   1.0000000
B2   B   0.631815253928156   0.534726728704784   0.111212026353986   1.0000000
B2   B   0.625639300390944   0.673284546788557   0.110897544982110   1.0000000
B2   B   0.620865786739956   0.811483816198587   0.110971043174678   1.0000000
B2   B   0.762739654760733   0.953739671268216   0.110956034678340   1.0000000
B2   B   0.761777136133083   0.095882581127378   0.110960534073030   1.0000000
B2   B   0.761537703789600   0.238464317406388   0.110940940506055   1.0000000
B2   B   0.761035225908436   0.380736142336603   0.110981304708008   1.0000000
B2   B   0.762782232596905   0.524879090711984   0.111037157384582   1.0000000
B2   B   0.767837990585929   0.671614485290283   0.110989550847758   1.0000000
B2   B   0.765421301757102   0.812940320170098   0.110963120923634   1.0000000
N2   N   0.953727447541411   0.905722097714308   0.111022203930829   1.0000000
N2   N   0.952165040042944   0.047836361875084   0.110998530458063   1.0000000
N2   N   0.951543847979257   0.190409170967641   0.110955308310659   1.0000000
N2   N   0.951855922534579   0.333346759868832   0.110918384109669   1.0000000
N2   N   0.952643573751637   0.476227427830057   0.110949418620387   1.0000000
N2   N   0.953547572097911   0.619095957388548   0.111142711850368   1.0000000
N2   N   0.954045404478714   0.762400367020404   0.111147730750301   1.0000000
N2   N   0.095872749818590   0.904128652099444   0.111075145387031   1.0000000
N2   N   0.094279304203627   0.046273954376583   0.111022203930829   1.0000000
N2   N   0.092915185912274   0.188651604806333   0.110957528266819   1.0000000
N2   N   0.093801023883021   0.332384672921677   0.110957531750200   1.0000000
N2   N   0.095715260209664   0.475672766836415   0.110998092555780   1.0000000
N2   N   0.096355722102448   0.618521354601648   0.111066415403966   1.0000000
N2   N   0.096366943885271   0.761343734602029   0.111116066240015   1.0000000
N2   N   0.238657667315934   0.903634458032723   0.111116066240015   1.0000000
N2   N   0.237601034897592   0.045955997439286   0.111147730750301   1.0000000
N2   N   0.234422517109480   0.186646778585534   0.110983810501230   1.0000000
N2   N   0.233252814292562   0.329133308888788   0.110907603414101   1.0000000
N2   N   0.238492064596639   0.474480902912270   0.111002696021281   1.0000000
N2   N   0.239454951952454   0.617937403589052   0.111095287953947   1.0000000
N2   N   0.239150266971640   0.760851134946371   0.111080673117921   1.0000000
N2   N   0.381480047316377   0.903645679815596   0.111066415403966   1.0000000
N2   N   0.380905444529439   0.046453829820104   0.111142711850368   1.0000000
N2   N   0.379582208240289   0.188454120863635   0.111093844283132   1.0000000
N2   N   0.373077344042782   0.326312333270743   0.110904437809662   1.0000000
N2   N   0.375390166441829   0.468051010215365   0.110941193632493   1.0000000
N2   N   0.382826677454362   0.617174724463652   0.111105591778490   1.0000000
N2   N   0.382063998328919   0.760546449965564   0.111095287953947   1.0000000
N2   N   0.524328635080524   0.904286141708354   0.110998092555780   1.0000000
N2   N   0.523773974086945   0.047357828166340   0.110949418620387   1.0000000
N2   N   0.523342575654852   0.190589867328504   0.110987950087343   1.0000000
N2   N   0.522523627933568   0.334201307324785   0.110996200017989   1.0000000
N2   N   0.531950391701646   0.624611235476177   0.110941193632493   1.0000000
N2   N   0.525520499004754   0.761509337321373   0.111002696021281   1.0000000
N2   N   0.667616728995367   0.906200378034960   0.110957531750200   1.0000000
N2   N   0.666654642048151   0.048145479383455   0.110918384109669   1.0000000
N2   N   0.666414468025778   0.190803519158149   0.110923310580720   1.0000000
N2   N   0.666342172177787   0.333659229739182   0.110930126519858   1.0000000
N2   N   0.665800094592253   0.477477773983424   0.110996200017988   1.0000000
N2   N   0.673689068646231   0.626924057875244   0.110904437809662   1.0000000
N2   N   0.670868093028178   0.766748587625411   0.110907603414101   1.0000000
N2   N   0.811349797111714   0.907086216005738   0.110957528266819   1.0000000
N2   N   0.809592230950345   0.048457553938822   0.110955308310659   1.0000000
N2   N   0.809160551972567   0.190840849945433   0.110941378840016   1.0000000
N2   N   0.809197882759877   0.333586933891205   0.110923310580720   1.0000000
N2   N   0.809411534589514   0.476658826262129   0.110987950087343   1.0000000
N2   N   0.811547281054419   0.620419193677676   0.111093844283132   1.0000000
N2   N   0.813354623332482   0.765578884808553   0.110983810501230   1.0000000


