data_1
_audit_creation_method   'vasp2cif'
_cell_length_a    17.52789999999977
_cell_length_b    17.52789999999977
_cell_length_c    15.0
_cell_angle_alpha    90.0
_cell_angle_beta    90.0
_cell_angle_gamma    119.99999999999916

_symmetry_space_group_name_H-M    'P 1'
loop_
_atom_site_label
_atom_site_type_symbol
_atom_site_fract_x
_atom_site_fract_y
_atom_site_fract_z
_atom_site_occupancy
B2   B   0.905113285554007   0.952694766920894   0.117928524521336   1.0000000
B2   B   0.904729415353382   0.095413342248453   0.117764348927623   1.0000000
B2   B   0.904584924769259   0.238266837867913   0.117079718038810   1.0000000
B2   B   0.904542951873509   0.381073824010400   0.116410624637194   1.0000000
B2   B   0.904320289715485   0.523716814704542   0.115216701636860   1.0000000
B2   B   0.904401350801568   0.666376804379269   0.115421987771819   1.0000000
B2   B   0.904819710861759   0.809479738678469   0.117125463614320   1.0000000
B2   B   0.047830308323021   0.952316659857452   0.117703491557982   1.0000000
B2   B   0.047444430407996   0.095020925389769   0.117924158244524   1.0000000
B2   B   0.047318051685696   0.237971091542423   0.116840398053640   1.0000000
B2   B   0.047463670862005   0.380875575016217   0.114955847015328   1.0000000
B2   B   0.047804257344681   0.523613530956561   0.114924854001589   1.0000000
B2   B   0.047890493900545   0.666363810129883   0.115697028706969   1.0000000
B2   B   0.047821488214769   0.809295361338743   0.116992342010704   1.0000000
B2   B   0.190858908897492   0.952333809664660   0.116994964984364   1.0000000
B2   B   0.190668224564252   0.095324757120522   0.117128586238366   1.0000000
B2   B   0.189614483768537   0.237315552016651   0.116996907267519   1.0000000
B2   B   0.190046234009535   0.380474386793993   0.111216964752818   1.0000000
B2   B   0.191108949834662   0.523193094928671   0.108737237891079   1.0000000
B2   B   0.191347710227513   0.666095891103862   0.111515461252273   1.0000000
B2   B   0.190996449485166   0.809170232362995   0.115272559542270   1.0000000
B2   B   0.333801394574183   0.952265997662995   0.115681771235880   1.0000000
B2   B   0.333776632672846   0.095746272711676   0.115414884670467   1.0000000
B2   B   0.333622933712286   0.238941641960981   0.114346879921915   1.0000000
B2   B   0.330686885348167   0.379173234022691   0.102514340254073   1.0000000
B2   B   0.334027714524665   0.521355699460113   0.090890358977104   1.0000000
B2   B   0.334814631950587   0.665338475277120   0.101267094788477   1.0000000
B2   B   0.334062590391959   0.808814754238376   0.111498840980865   1.0000000
B2   B   0.476552528080221   0.952351608802017   0.114894586403305   1.0000000
B2   B   0.476434811796228   0.095826413537334   0.115183394519275   1.0000000
B2   B   0.476489543419389   0.239575450092551   0.108976686174486   1.0000000
B2   B   0.476348845455678   0.383301508682501   0.098213895992240   1.0000000
B2   B   0.478788664898090   0.666124768322853   0.090880417487173   1.0000000
B2   B   0.476962043229677   0.809043309927372   0.108734754045769   1.0000000
B2   B   0.619285483323892   0.952688978414365   0.114954808031491   1.0000000
B2   B   0.619082696120538   0.095604233118520   0.116389614170194   1.0000000
B2   B   0.619005552568559   0.238638911416646   0.112772242346926   1.0000000
B2   B   0.618805708137844   0.381331965170544   0.103040571399560   1.0000000
B2   B   0.616842321073088   0.523790186304264   0.098198086731015   1.0000000
B2   B   0.620985441777018   0.669465988705222   0.102494489496361   1.0000000
B2   B   0.619671815504114   0.810093217042924   0.111222518100345   1.0000000
B2   B   0.762164905610892   0.952817617946441   0.116859368171122   1.0000000
B2   B   0.761890990332747   0.095568473921784   0.117079552669809   1.0000000
B2   B   0.761732915840435   0.238413020456812   0.116429827876711   1.0000000
B2   B   0.761496479086912   0.381134387532833   0.112777204307202   1.0000000
B2   B   0.760567064343802   0.523655045696402   0.108981199828451   1.0000000
B2   B   0.761205690231697   0.666519610276922   0.114347215835616   1.0000000
B2   B   0.762823811348204   0.810521781790684   0.117001129904890   1.0000000
N2   N   0.952717923032332   0.904925235181964   0.117739599540693   1.0000000
N2   N   0.952371852383507   0.047765465851860   0.118008208398783   1.0000000
N2   N   0.952029976576351   0.190511615193998   0.117449837745740   1.0000000
N2   N   0.952096255064887   0.333409284824219   0.116564750809778   1.0000000
N2   N   0.952326640996198   0.476260729371931   0.116252593713358   1.0000000
N2   N   0.952556892429179   0.618998511118473   0.115757482110738   1.0000000
N2   N   0.952679652289338   0.761875316532042   0.116777915948409   1.0000000
N2   N   0.095538562729123   0.904614849476581   0.117494332678019   1.0000000
N2   N   0.095223127317259   0.047427111974043   0.117744635742267   1.0000000
N2   N   0.094329466014652   0.189782955731497   0.117813069425806   1.0000000
N2   N   0.094495500575788   0.332973047994994   0.114809437067881   1.0000000
N2   N   0.095356184592199   0.476041140242834   0.113549501073104   1.0000000
N2   N   0.095748499123899   0.618881873367045   0.114467060966833   1.0000000
N2   N   0.095649538437509   0.761709186040777   0.116267254919821   1.0000000
N2   N   0.238454440854447   0.904510646890178   0.116259263463309   1.0000000
N2   N   0.238280760077772   0.047472075009308   0.116781290637700   1.0000000
N2   N   0.237711107490364   0.190067758023738   0.116793054503819   1.0000000
N2   N   0.235785595999043   0.331478867189591   0.114043709167432   1.0000000
N2   N   0.238027669428510   0.475479532180743   0.105397808150262   1.0000000
N2   N   0.238928428741665   0.618600951919181   0.106946995901117   1.0000000
N2   N   0.238635742508003   0.761525614114005   0.112620699993641   1.0000000
N2   N   0.381284453524918   0.904408047120647   0.114439305475948   1.0000000
N2   N   0.381160014510635   0.047595572154694   0.115737100285643   1.0000000
N2   N   0.381072778372594   0.190656394119558   0.113146565035934   1.0000000
N2   N   0.380113841318269   0.333165723595067   0.110564486765908   1.0000000
N2   N   0.374850215129604   0.469366130778737   0.080208301609544   1.0000000
N2   N   0.382086968541134   0.618060419313942   0.090180446287087   1.0000000
N2   N   0.381554942525122   0.761225495694760   0.106938733080616   1.0000000
N2   N   0.524122471877257   0.904798138925560   0.113541065224329   1.0000000
N2   N   0.523901385413330   0.047824517102296   0.116216948622324   1.0000000
N2   N   0.523847500620161   0.191060942492890   0.112656138710190   1.0000000
N2   N   0.523979233537571   0.334466843175950   0.101061869374209   1.0000000
N2   N   0.530793754890399   0.625321795858084   0.080186542678355   1.0000000
N2   N   0.524669191826301   0.762118961832264   0.105396464256186   1.0000000
N2   N   0.667171648905702   0.905642054500160   0.114827907524474   1.0000000
N2   N   0.666751892240866   0.048055446660088   0.116556329862556   1.0000000
N2   N   0.666602659898736   0.190773752682497   0.115961655347663   1.0000000
N2   N   0.666616402131438   0.333514733958340   0.109513129252872   1.0000000
N2   N   0.665676988876223   0.476161781224708   0.101049571857223   1.0000000
N2   N   0.666982199230701   0.620031174519406   0.110535842236504   1.0000000
N2   N   0.668666558345633   0.764353496341108   0.114038934591620   1.0000000
N2   N   0.810352571284586   0.905804833907977   0.117821363217774   1.0000000
N2   N   0.809630568332588   0.048106897203975   0.117464494150210   1.0000000
N2   N   0.809392055353520   0.190759697539475   0.117224932262364   1.0000000
N2   N   0.809367936321205   0.333546334338649   0.115971734329099   1.0000000
N2   N   0.809078827836242   0.476297570444622   0.112683281850773   1.0000000
N2   N   0.809491529515759   0.619074627451915   0.113147817500148   1.0000000
N2   N   0.810077495571453   0.762431892830332   0.116803556329366   1.0000000
Sb2   Sb   0.494956484027463   0.505277517170974   0.010938593728486   1.0000000


