data_1
_audit_creation_method   'vasp2cif'
_cell_length_a    17.52789999999977
_cell_length_b    17.52789999999977
_cell_length_c    15.0
_cell_angle_alpha    90.0
_cell_angle_beta    90.0
_cell_angle_gamma    119.99999999999916

_symmetry_space_group_name_H-M    'P 1'
loop_
_atom_site_label
_atom_site_type_symbol
_atom_site_fract_x
_atom_site_fract_y
_atom_site_fract_z
_atom_site_occupancy
B2   B   0.904580342401546   0.952390310560590   0.108278400380027   1.0000000
B2   B   0.905026706985757   0.095413284656674   0.108394389094611   1.0000000
B2   B   0.905084446218825   0.238195581312052   0.108782042323601   1.0000000
B2   B   0.904926575808399   0.380955254787713   0.108696591947514   1.0000000
B2   B   0.904950440735356   0.523647332399840   0.110293816744232   1.0000000
B2   B   0.903401537886015   0.666150932604115   0.114404099371171   1.0000000
B2   B   0.903776021112500   0.809250488712913   0.111237576767255   1.0000000
B2   B   0.047356001669236   0.952409705989185   0.108575501750416   1.0000000
B2   B   0.048046819630041   0.095672046195746   0.108540298006348   1.0000000
B2   B   0.048300733148385   0.238448136953771   0.109057923284462   1.0000000
B2   B   0.048194903355398   0.381064987242221   0.108953641273007   1.0000000
B2   B   0.047820001201789   0.523745312305765   0.108793926999031   1.0000000
B2   B   0.047016255076403   0.666464946823292   0.109646272255280   1.0000000
B2   B   0.046721014595323   0.809112855586046   0.109808011957547   1.0000000
B2   B   0.189888298524575   0.952009940309680   0.109025304435665   1.0000000
B2   B   0.190739688808339   0.095516974116312   0.109158052503461   1.0000000
B2   B   0.191684747263545   0.239024756095624   0.109669670692429   1.0000000
B2   B   0.191703070106654   0.381342297944984   0.109781242220800   1.0000000
B2   B   0.190876421512297   0.523939366329582   0.109231230130658   1.0000000
B2   B   0.190087059276550   0.666610544957249   0.108976086406360   1.0000000
B2   B   0.189913759790919   0.809272125164581   0.109151542199728   1.0000000
B2   B   0.332935444093720   0.952020849591134   0.109304293373580   1.0000000
B2   B   0.332851271553217   0.094539967782017   0.109853259981624   1.0000000
B2   B   0.334159599035031   0.237868660097523   0.111075561681945   1.0000000
B2   B   0.336175392453747   0.382429625703952   0.111982554819373   1.0000000
B2   B   0.334039200024277   0.525063638280847   0.111171932785749   1.0000000
B2   B   0.332982407861990   0.666965926955374   0.109450764086716   1.0000000
B2   B   0.333041520826714   0.809431471032456   0.109128715780491   1.0000000
B2   B   0.476011842080030   0.952095339978251   0.108882910889763   1.0000000
B2   B   0.475866874814838   0.095315695541273   0.109529753110375   1.0000000
B2   B   0.475262196861359   0.238466296973049   0.111701565776386   1.0000000
B2   B   0.475487299598121   0.665286839296137   0.112171324430171   1.0000000
B2   B   0.476118630072334   0.808806700506431   0.109202234990583   1.0000000
B2   B   0.619000033892107   0.952096461425383   0.108149367198569   1.0000000
B2   B   0.618891694146003   0.094850600023651   0.108672950503347   1.0000000
B2   B   0.618678391394176   0.237291823266758   0.109401941441109   1.0000000
B2   B   0.619554838301644   0.381206051609991   0.114933115853798   1.0000000
B2   B   0.621211088606179   0.665718749489955   0.124416225876877   1.0000000
B2   B   0.619183819113352   0.809195273988363   0.109303070969670   1.0000000
B2   B   0.761906274508271   0.952263711401105   0.107855723187035   1.0000000
B2   B   0.761978329709979   0.095168173936500   0.108380830413004   1.0000000
B2   B   0.761865043324224   0.237948514698892   0.108605766018219   1.0000000
B2   B   0.761719351514895   0.380981987928325   0.109844013433184   1.0000000
B2   B   0.761612612448271   0.523479261603817   0.117868871742073   1.0000000
B2   B   0.758128797370199   0.665625009360954   0.127219496198640   1.0000000
B2   B   0.761225297678494   0.808937221331470   0.111548285888705   1.0000000
C2   C   0.476784275767038   0.382544754721300   0.115577619022113   1.0000000
C2   C   0.476415178560329   0.523966628282868   0.116569634666221   1.0000000
C2   C   0.517559510088544   0.473261098750126   0.118854603912672   1.0000000
N2   N   0.952476243965119   0.905117794301611   0.108630617129653   1.0000000
N2   N   0.952921040774291   0.048167888180988   0.108171235040742   1.0000000
N2   N   0.953076961710861   0.190902714730180   0.108840207933469   1.0000000
N2   N   0.952907432961015   0.333451565653285   0.108746070008075   1.0000000
N2   N   0.952827693171833   0.476026151882766   0.108813074124861   1.0000000
N2   N   0.951976865917230   0.618821421502950   0.111027050172330   1.0000000
N2   N   0.951905651629844   0.761700463814130   0.111679743887433   1.0000000
N2   N   0.094987466473330   0.904733775231453   0.108864993504529   1.0000000
N2   N   0.095797931863861   0.048220007535369   0.108530324430934   1.0000000
N2   N   0.096549120115832   0.191402938971581   0.109015373952342   1.0000000
N2   N   0.096535503446113   0.333801530797490   0.109225797304223   1.0000000
N2   N   0.095890981544456   0.476231472748028   0.108860372932978   1.0000000
N2   N   0.095088866113179   0.618929962433887   0.108894317652520   1.0000000
N2   N   0.094872701919074   0.761748182291096   0.109447808859155   1.0000000
N2   N   0.237807525157181   0.904655028337722   0.109163583155445   1.0000000
N2   N   0.238004475820449   0.047663272370946   0.109238177167718   1.0000000
N2   N   0.239452604222405   0.191628235153632   0.109804949262115   1.0000000
N2   N   0.240914273136531   0.334797251528949   0.110238848009207   1.0000000
N2   N   0.239337855178986   0.476443272414127   0.109883597236799   1.0000000
N2   N   0.238035146816826   0.618983688319761   0.109081602189082   1.0000000
N2   N   0.237847336951153   0.761794350460913   0.109075701453756   1.0000000
N2   N   0.380704901276561   0.904624316254140   0.109161262051907   1.0000000
N2   N   0.380681521128798   0.047485869434902   0.109593972256612   1.0000000
N2   N   0.380702106130619   0.190209710890604   0.110851806451392   1.0000000
N2   N   0.384442649069358   0.334665698229679   0.112684747852922   1.0000000
N2   N   0.384316127537957   0.478489999928501   0.113114111233768   1.0000000
N2   N   0.380660767032446   0.619044146000787   0.110491500685746   1.0000000
N2   N   0.380723476544724   0.761757432483641   0.109198171924842   1.0000000
N2   N   0.523509875550721   0.904269812800675   0.108582500406378   1.0000000
N2   N   0.523480189426803   0.047627868325844   0.108933384487718   1.0000000
N2   N   0.523223407787218   0.191152528715313   0.110125004493697   1.0000000
N2   N   0.521476385947900   0.334991549754456   0.114534726701858   1.0000000
N2   N   0.520841816356079   0.614392485720308   0.117002383057301   1.0000000
N2   N   0.523216332362238   0.760435595457629   0.110135297185327   1.0000000
N2   N   0.666443339470829   0.904743990405062   0.107699519253719   1.0000000
N2   N   0.666546341253650   0.047459768908242   0.108364196728370   1.0000000
N2   N   0.666362393719688   0.189969320483291   0.108665608422076   1.0000000
N2   N   0.665317614181037   0.331801715409381   0.110180284007541   1.0000000
N2   N   0.666978923570838   0.473677354868524   0.119716035312764   1.0000000
N2   N   0.667914153931580   0.624825685215925   0.143221466884279   1.0000000
N2   N   0.665660818245310   0.761987128675094   0.111664550502062   1.0000000
N2   N   0.809477344505857   0.905011627958776   0.108291010182014   1.0000000
N2   N   0.809754787457008   0.047872788211958   0.108080660744554   1.0000000
N2   N   0.809710651689091   0.190565742934916   0.108613862649981   1.0000000
N2   N   0.809364323943954   0.333194258014954   0.108657431878240   1.0000000
N2   N   0.810134536350569   0.475980446567816   0.111287199417420   1.0000000
N2   N   0.808596228624872   0.618325714299799   0.121322353492334   1.0000000
N2   N   0.809478859759782   0.762346771462082   0.114417599777267   1.0000000


