data_1
_audit_creation_method   'vasp2cif'
_cell_length_a    14.93631414619966
_cell_length_b    14.936314146199727
_cell_length_c    13.341276283792837
_cell_angle_alpha    90.0
_cell_angle_beta    90.0
_cell_angle_gamma    119.99999999999984

_symmetry_space_group_name_H-M    'P 1'
loop_
_atom_site_label
_atom_site_type_symbol
_atom_site_fract_x
_atom_site_fract_y
_atom_site_fract_z
_atom_site_occupancy
N2   N   0.111711768528218   0.057271020823592   0.125000000000000   1.0000000
N2   N   0.606754387723546   0.551977974204613   0.125000000000000   1.0000000
N2   N   0.443818464294994   0.056453243241085   0.125000000000000   1.0000000
N2   N   0.946031173490843   0.556072285474803   0.125000000000000   1.0000000
N2   N   0.777333636389866   0.056096149182955   0.125000000000000   1.0000000
N2   N   0.110512253010676   0.722778198798840   0.625000000000000   1.0000000
N2   N   0.443862489626315   0.722792549601801   0.625000000000000   1.0000000
N2   N   0.277198100221170   0.222751557640185   0.625000000000000   1.0000000
N2   N   0.777182344853375   0.722786815904116   0.625000000000000   1.0000000
N2   N   0.610528789010172   0.222773845342460   0.625000000000000   1.0000000
N2   N   0.943861412439694   0.222766163656533   0.625000000000000   1.0000000
N2   N   0.277537266510687   0.722948438703377   0.125000000000000   1.0000000
N2   N   0.111858900988838   0.222862624477011   0.125000000000000   1.0000000
N2   N   0.441286173781718   0.221927141850356   0.125000000000000   1.0000000
N2   N   0.610035300901604   0.721698828782102   0.125000000000000   1.0000000
N2   N   0.946088521711187   0.724884202384536   0.125000000000000   1.0000000
N2   N   0.777021985154438   0.221974169487924   0.125000000000000   1.0000000
N2   N   0.110501098681463   0.889443999935548   0.625000000000000   1.0000000
N2   N   0.443849284888445   0.889449583508264   0.625000000000000   1.0000000
N2   N   0.277175213757999   0.389423259761876   0.625000000000000   1.0000000
N2   N   0.610509114056921   0.389445596780605   0.625000000000000   1.0000000
N2   N   0.777178651179081   0.889456717518064   0.625000000000000   1.0000000
N2   N   0.943863207648647   0.389455385989202   0.625000000000000   1.0000000
N2   N   0.110436793500538   0.389135970644757   0.125000000000000   1.0000000
N2   N   0.277526805602222   0.889724364467009   0.125000000000000   1.0000000
N2   N   0.610504026858058   0.889243566134260   0.125000000000000   1.0000000
N2   N   0.944266178376611   0.890024820344298   0.125000000000000   1.0000000
N2   N   0.776453815434679   0.387083444302996   0.125000000000000   1.0000000
N2   N   0.277214883762772   0.556080409667726   0.625000000000000   1.0000000
N2   N   0.110519454996096   0.056114722363020   0.625000000000000   1.0000000
N2   N   0.610527141178768   0.556098912619232   0.625000000000000   1.0000000
N2   N   0.443846987642729   0.056108050103478   0.625000000000000   1.0000000
N2   N   0.943871218513612   0.556098626997207   0.625000000000000   1.0000000
N2   N   0.111251009060457   0.555861164157037   0.125000000000000   1.0000000
N2   N   0.777180953908032   0.056128917957149   0.625000000000000   1.0000000
N2   N   0.277143150186399   0.055946097222346   0.125000000000000   1.0000000
N2   N   0.442647576010025   0.556164743129262   0.125000000000000   1.0000000
N2   N   0.610405236578079   0.056170829774198   0.125000000000000   1.0000000
N2   N   0.443872219659883   0.556127636844561   0.625000000000000   1.0000000
N2   N   0.944326780965890   0.056401985417264   0.125000000000000   1.0000000
N2   N   0.277185317676519   0.722766468719311   0.625000000000000   1.0000000
N2   N   0.110503680054939   0.222759616011147   0.625000000000000   1.0000000
N2   N   0.443857737883941   0.222781198073523   0.625000000000000   1.0000000
N2   N   0.610530691043313   0.722800331470716   0.625000000000000   1.0000000
N2   N   0.943843654488382   0.722786354488041   0.625000000000000   1.0000000
N2   N   0.777180005715161   0.222790412184425   0.625000000000000   1.0000000
N2   N   0.111350481214760   0.723170948086997   0.125000000000000   1.0000000
N2   N   0.443826188925452   0.722997193184589   0.125000000000000   1.0000000
N2   N   0.280763487628003   0.224177786765591   0.125000000000000   1.0000000
N2   N   0.776255466594362   0.723798027515392   0.125000000000000   1.0000000
N2   N   0.609265752107867   0.222937983466201   0.125000000000000   1.0000000
N2   N   0.944351135422059   0.222619490348379   0.125000000000000   1.0000000
N2   N   0.110515786597624   0.389431693198593   0.625000000000000   1.0000000
N2   N   0.277195108393364   0.889420370952312   0.625000000000000   1.0000000
N2   N   0.610537813513130   0.889455339929217   0.625000000000000   1.0000000
N2   N   0.443839746967731   0.389446329124091   0.625000000000000   1.0000000
N2   N   0.943863765611557   0.889444202498089   0.625000000000000   1.0000000
N2   N   0.111400772235688   0.890455523512467   0.125000000000000   1.0000000
N2   N   0.777191149135352   0.389450085383369   0.625000000000000   1.0000000
N2   N   0.443983310812379   0.889743896600922   0.125000000000000   1.0000000
N2   N   0.276747013295238   0.389612447338866   0.125000000000000   1.0000000
N2   N   0.277057251279911   0.556107918560697   0.125000000000000   1.0000000
N2   N   0.608088778452213   0.389119109074892   0.125000000000000   1.0000000
N2   N   0.777272048677822   0.890054839615713   0.125000000000000   1.0000000
N2   N   0.943855691845534   0.388975995718670   0.125000000000000   1.0000000
N2   N   0.110521450610226   0.556103604527278   0.625000000000000   1.0000000
N2   N   0.277186399898942   0.056103836468290   0.625000000000000   1.0000000
N2   N   0.777177082089279   0.556106246841556   0.625000000000000   1.0000000
N2   N   0.610517308463042   0.056132811387155   0.625000000000000   1.0000000
N2   N   0.943849839542345   0.056119396596836   0.625000000000000   1.0000000
N2   N   0.056123538299207   0.110605349923951   0.375086854892981   1.0000000
N2   N   0.556099588795707   0.610577458491352   0.375344550702147   1.0000000
N2   N   0.389412759790409   0.110534658261651   0.375136831253310   1.0000000
N2   N   0.889561958588374   0.610645873790909   0.375793384088894   1.0000000
N2   N   0.722747540258918   0.110581151520114   0.375138996141211   1.0000000
N2   N   0.056133245387037   0.777280810683794   0.874912584167286   1.0000000
N2   N   0.389435204460716   0.777267259271619   0.874970919912349   1.0000000
N2   N   0.222813539180127   0.277286652784873   0.874723105237796   1.0000000
N2   N   0.722767933619617   0.777248862084532   0.874899905832550   1.0000000
N2   N   0.556096799024640   0.277224851448372   0.874771367746945   1.0000000
N2   N   0.889436983628516   0.277259695921301   0.874839350775367   1.0000000
N2   N   0.222782658462394   0.777254071588499   0.374999656922622   1.0000000
N2   N   0.056113048458779   0.277263661216629   0.375059488447908   1.0000000
N2   N   0.389449504127924   0.277205768383002   0.375702249534222   1.0000000
N2   N   0.556110941253827   0.777255220627322   0.375001435219274   1.0000000
N2   N   0.889452045459960   0.777256002469099   0.375171240042727   1.0000000
N2   N   0.722758807337435   0.277238637456989   0.375220348091893   1.0000000
N2   N   0.056121291802179   0.943929080308075   0.874952734926861   1.0000000
N2   N   0.389426815730247   0.943886235000799   0.874980779732076   1.0000000
N2   N   0.222768241134990   0.443949601797933   0.874861216898384   1.0000000
N2   N   0.556192441537354   0.443940427163705   0.874207900000544   1.0000000
N2   N   0.722768264084925   0.943908348006725   0.874963028345048   1.0000000
N2   N   0.889466182813899   0.443942870525974   0.874811107167162   1.0000000
N2   N   0.056099294451750   0.443948613129000   0.375046224242403   1.0000000
N2   N   0.222773954423103   0.943893275180179   0.375054127468282   1.0000000
N2   N   0.556095607896872   0.943905130606624   0.375113801641125   1.0000000
N2   N   0.389436387716406   0.443959383754935   0.375617255678106   1.0000000
N2   N   0.889450794792713   0.943924763033642   0.375114681283999   1.0000000
N2   N   0.722788902666797   0.443875199342304   0.375874023557749   1.0000000
N2   N   0.222779609545845   0.610609882566709   0.874985623291726   1.0000000
N2   N   0.056123538299207   0.110605349923951   0.874913145107019   1.0000000
N2   N   0.556099588795707   0.610577458491352   0.874655449297854   1.0000000
N2   N   0.389412759790409   0.110534658261651   0.874863168746701   1.0000000
N2   N   0.889561958588374   0.610645873790909   0.874206615911106   1.0000000
N2   N   0.056147149714087   0.610622150619719   0.375090265092737   1.0000000
N2   N   0.722747540258914   0.110581151520114   0.874861003858776   1.0000000
N2   N   0.222804301411268   0.110583107699100   0.375088427504086   1.0000000
N2   N   0.389444553022826   0.610614663639346   0.375092989731219   1.0000000
N2   N   0.722768804776538   0.610608305423173   0.375900583908267   1.0000000
N2   N   0.556084531626600   0.110555757394485   0.375094426429168   1.0000000
N2   N   0.389444553022826   0.610614663639346   0.874907010268799   1.0000000
N2   N   0.889436595380569   0.110586201760115   0.375100099149428   1.0000000
N2   N   0.222782658462394   0.777254071588499   0.875000343077380   1.0000000
N2   N   0.056113048458779   0.277263661216629   0.874940511552096   1.0000000
N2   N   0.389449504127925   0.277205768383002   0.874297750465777   1.0000000
N2   N   0.556110941253827   0.777255220627322   0.874998564780734   1.0000000
N2   N   0.889452045459960   0.777256002469099   0.874828759957285   1.0000000
N2   N   0.722758807337435   0.277238637456989   0.874779651908098   1.0000000
N2   N   0.056133245387037   0.777280810683794   0.375087415832721   1.0000000
N2   N   0.389435204460716   0.777267259271619   0.375029080087652   1.0000000
N2   N   0.222813539180127   0.277286652784873   0.375276894762206   1.0000000
N2   N   0.722767933619617   0.777248862084532   0.375100094167460   1.0000000
N2   N   0.556096799024640   0.277224851448371   0.375228632253049   1.0000000
N2   N   0.889436983628516   0.277259695921301   0.375160649224635   1.0000000
N2   N   0.056099294451750   0.443948613129000   0.874953775757595   1.0000000
N2   N   0.222773954423103   0.943893275180179   0.874945872531722   1.0000000
N2   N   0.556095607896872   0.943905130606624   0.874886198358871   1.0000000
N2   N   0.389436387716406   0.443959383754935   0.874382744321884   1.0000000
N2   N   0.889450794792713   0.943924763033642   0.874885318715988   1.0000000
N2   N   0.056121291802179   0.943929080308073   0.375047265073139   1.0000000
N2   N   0.722788902666797   0.443875199342304   0.874125976442240   1.0000000
N2   N   0.389426815730247   0.943886235000799   0.375019220267918   1.0000000
N2   N   0.222768241134990   0.443949601797933   0.375138783101623   1.0000000
N2   N   0.222779609545845   0.610609882566709   0.375014376708269   1.0000000
N2   N   0.556192441537354   0.443940427163705   0.375792099999453   1.0000000
N2   N   0.722768264084925   0.943908348006725   0.375036971654947   1.0000000
N2   N   0.889466182813899   0.443942870525974   0.375188892832834   1.0000000
N2   N   0.056147149714087   0.610622150619719   0.874909734907258   1.0000000
N2   N   0.222804301411268   0.110583107699100   0.874911572495922   1.0000000
N2   N   0.722768804776538   0.610608305423173   0.874099416091736   1.0000000
N2   N   0.556084531626600   0.110555757394485   0.874905573570824   1.0000000
N2   N   0.889436595380569   0.110586201760115   0.874899900850571   1.0000000
B2   B   0.111697107666541   0.055011473863037   0.374930957054862   1.0000000
B2   B   0.611847340226568   0.554952074328995   0.375144486570280   1.0000000
B2   B   0.444981017876663   0.055048506417254   0.374934899150233   1.0000000
B2   B   0.944901072804238   0.555087994083269   0.374848133215218   1.0000000
B2   B   0.778303812924573   0.055009057110986   0.374978479791887   1.0000000
B2   B   0.111581682627529   0.721660805932020   0.875193835086872   1.0000000
B2   B   0.445002372274105   0.721662234723089   0.875107134816646   1.0000000
B2   B   0.278557647592554   0.221774946472266   0.874861148297717   1.0000000
B2   B   0.778261396967667   0.721451121290878   0.875142274306379   1.0000000
B2   B   0.611688298228364   0.221771246721650   0.875049100480013   1.0000000
B2   B   0.945018373650810   0.221711814663434   0.875006776015432   1.0000000
B2   B   0.278331503635941   0.721746235067739   0.374874145443822   1.0000000
B2   B   0.111700284721156   0.221729512201271   0.375010443500870   1.0000000
B2   B   0.444985058688461   0.221771082563171   0.375088887233164   1.0000000
B2   B   0.611698757431559   0.721617070409174   0.374862930386947   1.0000000
B2   B   0.944892748802551   0.721539818984134   0.374837652097898   1.0000000
B2   B   0.778236728131454   0.221752728895334   0.375011042806868   1.0000000
B2   B   0.111556852442010   0.888243505360845   0.875127429068393   1.0000000
B2   B   0.444920856910631   0.888316565917068   0.875043462291161   1.0000000
B2   B   0.278522680944820   0.388520177002852   0.874810341904249   1.0000000
B2   B   0.611858823488067   0.388603818471521   0.874884696362723   1.0000000
B2   B   0.778250752969718   0.888210784363120   0.875125044102778   1.0000000
B2   B   0.944952988344154   0.388524739489852   0.875099531641035   1.0000000
B2   B   0.111674352946786   0.388436697583907   0.374941238760145   1.0000000
B2   B   0.278324769053830   0.888306457644696   0.374887493728946   1.0000000
B2   B   0.611681392927880   0.888273101034118   0.374917537867802   1.0000000
B2   B   0.445185598011830   0.388434352572720   0.374570666262164   1.0000000
B2   B   0.944956888333222   0.888170069199070   0.374875834052283   1.0000000
B2   B   0.778270930285127   0.388526623897406   0.374920246975933   1.0000000
B2   B   0.278381985495055   0.555033545466095   0.875067578170834   1.0000000
B2   B   0.111697107666541   0.055011473863037   0.875069042945142   1.0000000
B2   B   0.611847340226568   0.554952074328995   0.874855513429716   1.0000000
B2   B   0.444981017876663   0.055048506417254   0.875065100849782   1.0000000
B2   B   0.944901072804238   0.555087994083269   0.875151866784780   1.0000000
B2   B   0.111545432797016   0.555048284969702   0.374848182268938   1.0000000
B2   B   0.778303812924573   0.055009057110986   0.875021520208112   1.0000000
B2   B   0.278384541053315   0.055083705657929   0.374980377078422   1.0000000
B2   B   0.445009256604359   0.554953443234995   0.375127038798580   1.0000000
B2   B   0.778299793847859   0.555003465870434   0.373776081616129   1.0000000
B2   B   0.611660148614784   0.055097187267133   0.375011340172130   1.0000000
B2   B   0.445009256604359   0.554953443234995   0.874872961201411   1.0000000
B2   B   0.945019805969646   0.055039586958824   0.374979944964285   1.0000000
B2   B   0.278331503635941   0.721746235067739   0.875125854556198   1.0000000
B2   B   0.111700284721156   0.221729512201271   0.874989556499128   1.0000000
B2   B   0.444985058688461   0.221771082563171   0.874911112766835   1.0000000
B2   B   0.611698757431559   0.721617070409174   0.875137069613038   1.0000000
B2   B   0.944892748802551   0.721539818984134   0.875162347902097   1.0000000
B2   B   0.778236728131454   0.221752728895334   0.874988957193128   1.0000000
B2   B   0.111581682627528   0.721660805932020   0.374806164913119   1.0000000
B2   B   0.445002372274105   0.721662234723089   0.374892865183348   1.0000000
B2   B   0.278557647592554   0.221774946472266   0.375138851702284   1.0000000
B2   B   0.778261396967667   0.721451121290878   0.374857725693623   1.0000000
B2   B   0.611688298228364   0.221771246721650   0.374950899519982   1.0000000
B2   B   0.945018373650810   0.221711814663434   0.374993223984573   1.0000000
B2   B   0.111674352946786   0.388436697583907   0.875058761239865   1.0000000
B2   B   0.278324769053830   0.888306457644696   0.875112506271044   1.0000000
B2   B   0.611681392927880   0.888273101034118   0.875082462132193   1.0000000
B2   B   0.445185598011831   0.388434352572720   0.875429333737842   1.0000000
B2   B   0.944956888333222   0.888170069199070   0.875124165947708   1.0000000
B2   B   0.111556852442010   0.888243505360845   0.374872570931606   1.0000000
B2   B   0.778270930285127   0.388526623897406   0.875079753024086   1.0000000
B2   B   0.444920856910631   0.888316565917068   0.374956537708850   1.0000000
B2   B   0.278522680944820   0.388520177002852   0.375189658095751   1.0000000
B2   B   0.278381985495055   0.555033545466095   0.374932421829166   1.0000000
B2   B   0.611858823488067   0.388603818471521   0.375115303637283   1.0000000
B2   B   0.778250752969718   0.888210784363120   0.374874955897226   1.0000000
B2   B   0.944952988344154   0.388524739489852   0.374900468358981   1.0000000
B2   B   0.111545432797016   0.555048284969702   0.875151817731058   1.0000000
B2   B   0.278384541053315   0.055083705657929   0.875019622921584   1.0000000
B2   B   0.778299793847859   0.555003465870434   0.876223918383869   1.0000000
B2   B   0.611660148614784   0.055097187267133   0.874988659827863   1.0000000
B2   B   0.945019805969646   0.055039586958824   0.875020055035725   1.0000000
B2   B   0.055532902441038   0.111999705294122   0.125000000000000   1.0000000
B2   B   0.553464423443264   0.609275434205340   0.125000000000000   1.0000000
B2   B   0.387780892211397   0.111696028954735   0.125000000000000   1.0000000
B2   B   0.889952137232984   0.612408928749818   0.125000000000000   1.0000000
B2   B   0.721622053637316   0.111439214491940   0.125000000000000   1.0000000
B2   B   0.054850686437170   0.778357458300016   0.625000000000000   1.0000000
B2   B   0.388257493337990   0.778379478774664   0.625000000000000   1.0000000
B2   B   0.221652553611839   0.278340421488173   0.625000000000000   1.0000000
B2   B   0.721588202449045   0.778341823944067   0.625000000000000   1.0000000
B2   B   0.554980345214219   0.278405456573039   0.625000000000000   1.0000000
B2   B   0.888288322751240   0.278370141014596   0.625000000000000   1.0000000
B2   B   0.221878610793671   0.778485118970143   0.125000000000000   1.0000000
B2   B   0.055685631949106   0.278139911245272   0.125000000000000   1.0000000
B2   B   0.555102577086267   0.777623555741571   0.125000000000000   1.0000000
B2   B   0.887861310915222   0.777726142725587   0.125000000000000   1.0000000
B2   B   0.721188432479116   0.277668587015553   0.125000000000000   1.0000000
B2   B   0.054915172162975   0.944925858023327   0.625000000000000   1.0000000
B2   B   0.388251329980727   0.944925511249681   0.625000000000000   1.0000000
B2   B   0.221719943776635   0.445007086656708   0.625000000000000   1.0000000
B2   B   0.555042547395276   0.445050677056354   0.625000000000000   1.0000000
B2   B   0.721597722547248   0.944936827911912   0.625000000000000   1.0000000
B2   B   0.888355573180587   0.445063097095338   0.625000000000000   1.0000000
B2   B   0.054782688194314   0.444737485322186   0.125000000000000   1.0000000
B2   B   0.221923577554846   0.945284817793667   0.125000000000000   1.0000000
B2   B   0.555079871618856   0.945015947011892   0.125000000000000   1.0000000
B2   B   0.387750974993217   0.445420622359129   0.125000000000000   1.0000000
B2   B   0.888489448791861   0.945080646546566   0.125000000000000   1.0000000
B2   B   0.720725592004622   0.443852833576486   0.125000000000000   1.0000000
B2   B   0.221624373461847   0.611648645743134   0.625000000000000   1.0000000
B2   B   0.054923124509214   0.111716220940917   0.625000000000000   1.0000000
B2   B   0.554994120122999   0.611657442146174   0.625000000000000   1.0000000
B2   B   0.388266660775765   0.111752445496904   0.625000000000000   1.0000000
B2   B   0.888232044743875   0.611645660954072   0.625000000000000   1.0000000
B2   B   0.055609939805127   0.611414045645402   0.125000000000000   1.0000000
B2   B   0.721571930606174   0.111763098880332   0.625000000000000   1.0000000
B2   B   0.223105135875582   0.112748323461585   0.125000000000000   1.0000000
B2   B   0.388004911068797   0.611834122479374   0.125000000000000   1.0000000
B2   B   0.719996847871217   0.610863905558155   0.125000000000000   1.0000000
B2   B   0.554899571740935   0.112192111729494   0.125000000000000   1.0000000
B2   B   0.388305021051196   0.611590371609372   0.625000000000000   1.0000000
B2   B   0.888601172520792   0.111666003968447   0.125000000000000   1.0000000
B2   B   0.221667637296011   0.778346587854197   0.625000000000000   1.0000000
B2   B   0.054925385432727   0.278245082063246   0.625000000000000   1.0000000
B2   B   0.388295028791259   0.278311911373369   0.625000000000000   1.0000000
B2   B   0.555079636097244   0.778375147987296   0.625000000000000   1.0000000
B2   B   0.888327305325515   0.778323962611898   0.625000000000000   1.0000000
B2   B   0.721603299915485   0.278327664583287   0.625000000000000   1.0000000
B2   B   0.055659811168492   0.779178044062893   0.125000000000000   1.0000000
B2   B   0.388441200848799   0.778574245954648   0.125000000000000   1.0000000
B2   B   0.223603963003276   0.278901627344667   0.125000000000000   1.0000000
B2   B   0.721516880089039   0.778568185497130   0.125000000000000   1.0000000
B2   B   0.553054409208695   0.278749722453655   0.125000000000000   1.0000000
B2   B   0.888372473455312   0.278137606862589   0.125000000000000   1.0000000
B2   B   0.054899701773658   0.445036421264791   0.625000000000000   1.0000000
B2   B   0.221611218260794   0.945005310834809   0.625000000000000   1.0000000
B2   B   0.554970776077913   0.945033989939181   0.625000000000000   1.0000000
B2   B   0.388274500687369   0.445050503328398   0.625000000000000   1.0000000
B2   B   0.888285021521783   0.944993833066846   0.625000000000000   1.0000000
B2   B   0.055434121845544   0.945557405794636   0.125000000000000   1.0000000
B2   B   0.721582227076365   0.445084256306999   0.625000000000000   1.0000000
B2   B   0.388445306425291   0.945395681779472   0.125000000000000   1.0000000
B2   B   0.221423099238711   0.444915020042078   0.125000000000000   1.0000000
B2   B   0.221883210492761   0.611641300930474   0.125000000000000   1.0000000
B2   B   0.721685425286706   0.945023926371383   0.125000000000000   1.0000000
B2   B   0.887834654673698   0.444962678185463   0.125000000000000   1.0000000
B2   B   0.054884522849500   0.611586896645254   0.625000000000000   1.0000000
B2   B   0.221739009852546   0.111729940185042   0.625000000000000   1.0000000
B2   B   0.721588000509670   0.611552106096833   0.625000000000000   1.0000000
B2   B   0.555047603445241   0.111750623968583   0.625000000000000   1.0000000
B2   B   0.888363698017327   0.111713549314233   0.625000000000000   1.0000000
C2   C   0.446042176572424   0.386975432425460   0.125000000000000   1.0000000
C2   C   0.777331223940957   0.556005148686217   0.125000000000000   1.0000000
C2   C   0.389724196520374   0.278794803836969   0.125000000000000   1.0000000
C2   C   0.553953962786137   0.443321055670622   0.125000000000000   1.0000000


