data_1
_audit_creation_method   'vasp2cif'
_cell_length_a    17.52789999999977
_cell_length_b    17.52789999999977
_cell_length_c    15.0
_cell_angle_alpha    90.0
_cell_angle_beta    90.0
_cell_angle_gamma    119.99999999999916

_symmetry_space_group_name_H-M    'P 1'
loop_
_atom_site_label
_atom_site_type_symbol
_atom_site_fract_x
_atom_site_fract_y
_atom_site_fract_z
_atom_site_occupancy
Al2   Al   0.423813653933710   0.471015106926550   0.110858225198184   1.0000000
B2   B   0.908978176721270   0.955605753899313   0.110635240480581   1.0000000
B2   B   0.907160188401731   0.098101431891253   0.110704831785731   1.0000000
B2   B   0.906160653528867   0.240609678554358   0.110761067161116   1.0000000
B2   B   0.904758482267519   0.382421826646600   0.110657839892168   1.0000000
B2   B   0.902985984673792   0.523925908427822   0.110676874278467   1.0000000
B2   B   0.906332834046327   0.666669462122867   0.110761014122751   1.0000000
B2   B   0.909777898448897   0.812317450091277   0.110690350846546   1.0000000
B2   B   0.048823534038676   0.950065351512418   0.110650169109847   1.0000000
B2   B   0.047370030770013   0.092894282990794   0.110623245164275   1.0000000
B2   B   0.048742270100445   0.238299005417788   0.110747758740486   1.0000000
B2   B   0.049481736781693   0.381501626956286   0.110658715810521   1.0000000
B2   B   0.048984720567928   0.523155875536525   0.110569425704290   1.0000000
B2   B   0.049095385663723   0.664897495821975   0.110693447845601   1.0000000
B2   B   0.049287126850933   0.807325993155314   0.110699336068601   1.0000000
B2   B   0.190731866614257   0.947456605759167   0.110695121276020   1.0000000
B2   B   0.187424911519564   0.087149915587622   0.110475599119661   1.0000000
B2   B   0.185731690999374   0.229332080407317   0.110949938752114   1.0000000
B2   B   0.193231787907123   0.379426846225190   0.111051476748866   1.0000000
B2   B   0.194873552808185   0.522686254195655   0.110634920476023   1.0000000
B2   B   0.193531484509391   0.664744855804191   0.110599350302863   1.0000000
B2   B   0.192238145539255   0.806345736026787   0.110748220058227   1.0000000
B2   B   0.334605010680706   0.948530630119510   0.110844195401685   1.0000000
B2   B   0.332166183054100   0.087176005929445   0.110400770921457   1.0000000
B2   B   0.325624411365431   0.220290597501189   0.111062274957521   1.0000000
B2   B   0.322435622760790   0.356398280523321   0.111230761014255   1.0000000
B2   B   0.342492750173044   0.527940215384946   0.111189078531776   1.0000000
B2   B   0.338816165976230   0.667890459278058   0.110563627256222   1.0000000
B2   B   0.336447366970697   0.808256272424943   0.110756276035720   1.0000000
B2   B   0.478801726646235   0.952386446455336   0.110852181951666   1.0000000
B2   B   0.476969628711230   0.093572755779243   0.110705691556818   1.0000000
B2   B   0.473783376878090   0.233809759899882   0.110515022242326   1.0000000
B2   B   0.463696946792643   0.369451245636678   0.111410882028187   1.0000000
B2   B   0.485385433861744   0.668679830436813   0.110681816209719   1.0000000
B2   B   0.481097134716552   0.810825930728399   0.110771165169092   1.0000000
B2   B   0.622621425335185   0.956832146373921   0.110783737868636   1.0000000
B2   B   0.620780919633414   0.098220689885058   0.110727250395263   1.0000000
B2   B   0.618464628118636   0.240691746815092   0.110674515720791   1.0000000
B2   B   0.613264749848249   0.384238140765653   0.110750512829279   1.0000000
B2   B   0.615574286114865   0.542231690342905   0.110748433212647   1.0000000
B2   B   0.636565476817524   0.685084663229084   0.110682261467430   1.0000000
B2   B   0.625721369201213   0.817265397071522   0.110709462318743   1.0000000
B2   B   0.766429167230574   0.957999943707046   0.110702656932375   1.0000000
B2   B   0.764267634852790   0.099320034096530   0.110714759016769   1.0000000
B2   B   0.762423306952358   0.241242090109323   0.110732819666203   1.0000000
B2   B   0.759506269623869   0.383291853660291   0.110716515110763   1.0000000
B2   B   0.756045399484808   0.525912618758605   0.110752332799920   1.0000000
B2   B   0.770685256315959   0.674794652677574   0.110718330983893   1.0000000
B2   B   0.771194547779530   0.818754759658618   0.110641578541775   1.0000000
N2   N   0.955343882000039   0.906306414765191   0.110645940920306   1.0000000
N2   N   0.953831468557220   0.049259512731156   0.110640506293558   1.0000000
N2   N   0.953751896573633   0.192740997145584   0.110734987940440   1.0000000
N2   N   0.953557555682257   0.335349770135311   0.110663622632474   1.0000000
N2   N   0.952541973030741   0.477122208871538   0.110586154874303   1.0000000
N2   N   0.953588565878321   0.618780757285495   0.110716823145315   1.0000000
N2   N   0.954818088504916   0.761902464854529   0.110710850798356   1.0000000
N2   N   0.096063951406406   0.901752135262278   0.110663033153164   1.0000000
N2   N   0.093700723779310   0.043484330563641   0.110597443926113   1.0000000
N2   N   0.092316609881936   0.186408982286852   0.110659602398821   1.0000000
N2   N   0.096928986221252   0.333544894881287   0.110774186837470   1.0000000
N2   N   0.097982126654954   0.476411976305026   0.110536454318302   1.0000000
N2   N   0.097551981668996   0.618031934792955   0.110602064527570   1.0000000
N2   N   0.096998729025450   0.759715725647558   0.110688333431149   1.0000000
N2   N   0.239330832683175   0.900907185207415   0.110796600957889   1.0000000
N2   N   0.236948883208763   0.041139835783892   0.110512200276414   1.0000000
N2   N   0.231825620030738   0.179491028583356   0.110506601987044   1.0000000
N2   N   0.231026552607327   0.322407708802639   0.111417592720688   1.0000000
N2   N   0.243790477084867   0.475960653552163   0.110922550767718   1.0000000
N2   N   0.242438157750911   0.618459759416201   0.110526492819876   1.0000000
N2   N   0.240842432929230   0.759881765797172   0.110683360861593   1.0000000
N2   N   0.383516622079334   0.903017840457815   0.110873211291194   1.0000000
N2   N   0.381709565895570   0.042607725258839   0.110690244830131   1.0000000
N2   N   0.378484784117124   0.179868720816651   0.110184974646607   1.0000000
N2   N   0.369737326817983   0.310336719280896   0.112291077286090   1.0000000
N2   N   0.388583794891910   0.623283599272476   0.110583051712443   1.0000000
N2   N   0.385535002337973   0.762909478339099   0.110677623860265   1.0000000
N2   N   0.527575726507080   0.906459182768439   0.110818208117725   1.0000000
N2   N   0.525738460602204   0.047646307157292   0.110780689396976   1.0000000
N2   N   0.523492497584755   0.188562959585001   0.110589673956840   1.0000000
N2   N   0.518256685134603   0.328519330677195   0.110719115361124   1.0000000
N2   N   0.534118069039677   0.546556060725676   0.110622816358525   1.0000000
N2   N   0.545381261064717   0.633746200837963   0.110659161357227   1.0000000
N2   N   0.530795072836398   0.765487669190632   0.110730112843112   1.0000000
N2   N   0.671709814681170   0.911610634150189   0.110735260514756   1.0000000
N2   N   0.669297438876278   0.051751388071222   0.110699353089577   1.0000000
N2   N   0.667299771451857   0.193548231512326   0.110696712399914   1.0000000
N2   N   0.664026243194123   0.336680105322879   0.110699159003291   1.0000000
N2   N   0.658233322499543   0.481705372169103   0.110766095953931   1.0000000
N2   N   0.679625125109770   0.634613443539456   0.110712457295256   1.0000000
N2   N   0.678629984585311   0.776676877670867   0.110615168757154   1.0000000
N2   N   0.815714335544486   0.912070334487363   0.110628844197734   1.0000000
N2   N   0.812547637794673   0.052387937611831   0.110690267550108   1.0000000
N2   N   0.810950770486304   0.194098312385380   0.110741258316283   1.0000000
N2   N   0.809025415935384   0.336167434163743   0.110695385794685   1.0000000
N2   N   0.806395180197066   0.478306997731403   0.110702470598189   1.0000000
N2   N   0.811758184977497   0.621519233083414   0.110738754107487   1.0000000
N2   N   0.816951079918390   0.769166458965583   0.110640496938929   1.0000000


