data_1
_audit_creation_method   'vasp2cif'
_cell_length_a    17.52789999999977
_cell_length_b    17.52789999999977
_cell_length_c    15.0
_cell_angle_alpha    90.0
_cell_angle_beta    90.0
_cell_angle_gamma    119.99999999999916

_symmetry_space_group_name_H-M    'P 1'
loop_
_atom_site_label
_atom_site_type_symbol
_atom_site_fract_x
_atom_site_fract_y
_atom_site_fract_z
_atom_site_occupancy
B2   B   0.905161312760722   0.952949220688263   0.111005831604975   1.0000000
B2   B   0.904683397225968   0.095314359529205   0.111023610624038   1.0000000
B2   B   0.904674857132909   0.237933568814520   0.111000686360491   1.0000000
B2   B   0.905173143348847   0.380795619222802   0.110976925015861   1.0000000
B2   B   0.906944877959434   0.524156804388359   0.111052703260409   1.0000000
B2   B   0.906879781722795   0.667724536976850   0.111127341555418   1.0000000
B2   B   0.906946937066769   0.811357394488812   0.111051909052535   1.0000000
B2   B   0.047714209525456   0.952280322155764   0.110999221616725   1.0000000
B2   B   0.047048107570939   0.094837654393518   0.111003593091101   1.0000000
B2   B   0.046911641033117   0.237745925924271   0.110980234642987   1.0000000
B2   B   0.047062599979523   0.380786068616467   0.110997466495764   1.0000000
B2   B   0.047722611344513   0.524013911954467   0.111015652494687   1.0000000
B2   B   0.048331078837674   0.667060497937716   0.111072830571432   1.0000000
B2   B   0.048344513441255   0.809849243989249   0.111023338106933   1.0000000
B2   B   0.190144559317000   0.951651775714450   0.111016542794138   1.0000000
B2   B   0.188647826696232   0.093061436889899   0.111051140155661   1.0000000
B2   B   0.188862319826133   0.236888047915311   0.110988178080688   1.0000000
B2   B   0.188870286843916   0.380573191808055   0.110993988029104   1.0000000
B2   B   0.188661096446046   0.524164521542704   0.111024368153679   1.0000000
B2   B   0.190144217628383   0.667053279686724   0.111054250931240   1.0000000
B2   B   0.190469685182823   0.809528390448283   0.111008192724790   1.0000000
B2   B   0.332933678727237   0.951663239650091   0.111048234170025   1.0000000
B2   B   0.332273407116483   0.093125196116663   0.111118904918800   1.0000000
B2   B   0.328730611552279   0.232661066314317   0.111054465723575   1.0000000
B2   B   0.330841958295356   0.379711194314741   0.111039523678780   1.0000000
B2   B   0.328749702128878   0.524657237143014   0.111035094411966   1.0000000
B2   B   0.332279251895392   0.667715680732859   0.111036064629026   1.0000000
B2   B   0.332942858481044   0.809853061396260   0.111044247382842   1.0000000
B2   B   0.475986936406326   0.952280188765909   0.111013728795998   1.0000000
B2   B   0.475840136776077   0.093056729747071   0.111047702147501   1.0000000
B2   B   0.475332579880831   0.232649752491466   0.111050898757694   1.0000000
B2   B   0.467176989861221   0.362936513519917   0.111050225858735   1.0000000
B2   B   0.467209513510695   0.532792568497946   0.111080792467095   1.0000000
B2   B   0.475341111297628   0.671258271915207   0.111033090887411   1.0000000
B2   B   0.475836696680211   0.811343856953618   0.111024692426692   1.0000000
B2   B   0.619211358166989   0.952941050159675   0.111012155411861   1.0000000
B2   B   0.619203177274429   0.094822802862493   0.110990468128615   1.0000000
B2   B   0.619437020390216   0.236877861868300   0.110981453661629   1.0000000
B2   B   0.620299458743464   0.379688113157438   0.111008361143019   1.0000000
B2   B   0.637076893501575   0.532829222669401   0.111046639307848   1.0000000
B2   B   0.620291554626440   0.669173232584546   0.111038811468241   1.0000000
B2   B   0.619427983313524   0.811132581134153   0.110996695988448   1.0000000
B2   B   0.762255848654961   0.953087788432338   0.110994189298639   1.0000000
B2   B   0.762065997604292   0.095323466741286   0.111016187296153   1.0000000
B2   B   0.762266008867755   0.237735820417018   0.110991118152832   1.0000000
B2   B   0.763117677841981   0.380556987522664   0.110973839447137   1.0000000
B2   B   0.767357102213601   0.524664016833989   0.111054476048582   1.0000000
B2   B   0.767357500845724   0.671289082943284   0.111055168689569   1.0000000
B2   B   0.763115636968990   0.811142617368687   0.110989770755998   1.0000000
N2   N   0.953198351494670   0.905789841393214   0.111000374441417   1.0000000
N2   N   0.952217852759070   0.047780285345785   0.111003668805566   1.0000000
N2   N   0.952046078733819   0.190305205750807   0.110988806421949   1.0000000
N2   N   0.952231116787712   0.333002415660576   0.110972177222010   1.0000000
N2   N   0.953213289006809   0.475994072479989   0.110984027998865   1.0000000
N2   N   0.953657843806754   0.619420348395127   0.111099003161328   1.0000000
N2   N   0.953664012401893   0.762822088070648   0.111063973584577   1.0000000
N2   N   0.095302157921423   0.904696296414641   0.110966287058453   1.0000000
N2   N   0.094206515871643   0.046799849182447   0.110999812126252   1.0000000
N2   N   0.094127464603165   0.189868872722734   0.110965368856649   1.0000000
N2   N   0.094140028756916   0.332837580941650   0.110972737207415   1.0000000
N2   N   0.094227843871323   0.475985469588695   0.110995923110746   1.0000000
N2   N   0.095308009748855   0.619182016890219   0.111036311845714   1.0000000
N2   N   0.095605577305038   0.762090694073674   0.111014849230710   1.0000000
N2   N   0.237902757595293   0.904391265248130   0.110995649028321   1.0000000
N2   N   0.237173053723200   0.046330303172626   0.111061223305495   1.0000000
N2   N   0.234748185174950   0.187358121795450   0.111016025099676   1.0000000
N2   N   0.236044805083910   0.332314602070502   0.110973643577613   1.0000000
N2   N   0.234774535293760   0.475983687652419   0.110994597485028   1.0000000
N2   N   0.237195370864974   0.619419888806541   0.111028978112888   1.0000000
N2   N   0.237910970104633   0.762092744095849   0.111021891001442   1.0000000
N2   N   0.380821696209396   0.904695288629650   0.111013405318322   1.0000000
N2   N   0.380577074664602   0.046336937873493   0.111078298341556   1.0000000
N2   N   0.379490826726298   0.187585308518391   0.111072751461608   1.0000000
N2   N   0.374116419767505   0.326394245135769   0.111041290095509   1.0000000
N2   N   0.374130763442405   0.476307218545610   0.111064275348479   1.0000000
N2   N   0.379512607581644   0.620491600323730   0.111010070042710   1.0000000
N2   N   0.380586656917639   0.762811997240160   0.111023133841303   1.0000000
N2   N   0.524010044315896   0.905773428975980   0.111004129950540   1.0000000
N2   N   0.524003535159321   0.046781537489432   0.110990071953230   1.0000000
N2   N   0.524018177684076   0.187359317288531   0.111009147373873   1.0000000
N2   N   0.523702434518836   0.326396026162632   0.111027699199610   1.0000000
N2   N   0.523710568899862   0.625891951576894   0.111061665259347   1.0000000
N2   N   0.524023072120283   0.765232525361986   0.110993674093260   1.0000000
N2   N   0.667158084581288   0.905858736922152   0.110987406847041   1.0000000
N2   N   0.666994872839739   0.047765659304257   0.110994539900802   1.0000000
N2   N   0.667161943320828   0.189865770261753   0.110967350762516   1.0000000
N2   N   0.667688256173757   0.332309721688761   0.110953493933764   1.0000000
N2   N   0.673627054700178   0.476308777063832   0.111030614528914   1.0000000
N2   N   0.673630579366715   0.625914602762889   0.111039073922666   1.0000000
N2   N   0.667686687466890   0.763954551241055   0.110973200480718   1.0000000
N2   N   0.810128066883553   0.905869092704506   0.110970195179069   1.0000000
N2   N   0.809690987779767   0.047952156724949   0.111005417943912   1.0000000
N2   N   0.809697335734600   0.190299313819466   0.110987261981016   1.0000000
N2   N   0.810129801315545   0.332836261965577   0.110957893938919   1.0000000
N2   N   0.812636520471824   0.475979925447550   0.111006380024246   1.0000000
N2   N   0.812410763693682   0.620506193862069   0.111075726202167   1.0000000
N2   N   0.812641248199865   0.765254791936233   0.111017365920431   1.0000000
P2   P   0.523844252337278   0.476190302378842   0.111154131057987   1.0000000


