data_1
_audit_creation_method   'vasp2cif'
_cell_length_a    14.93631414619966
_cell_length_b    14.936314146199727
_cell_length_c    13.341276283792837
_cell_angle_alpha    90.0
_cell_angle_beta    90.0
_cell_angle_gamma    119.99999999999984

_symmetry_space_group_name_H-M    'P 1'
loop_
_atom_site_label
_atom_site_type_symbol
_atom_site_fract_x
_atom_site_fract_y
_atom_site_fract_z
_atom_site_occupancy
Ge2   Ge   0.555555555555557   0.444444444444443   0.375000000000000   1.0000000
N2   N   0.111108282870011   0.055543496229497   0.125012949355804   1.0000000
N2   N   0.611113800513656   0.555560934360674   0.126150514908070   1.0000000
N2   N   0.444433115703862   0.055542952861712   0.125146095391984   1.0000000
N2   N   0.944457047138296   0.555566884296116   0.125146095391984   1.0000000
N2   N   0.777773712573472   0.055553522953393   0.125020281243591   1.0000000
N2   N   0.111118254247463   0.722225793790402   0.624878401787762   1.0000000
N2   N   0.444433115703862   0.722223496175496   0.624853904608014   1.0000000
N2   N   0.277766898662010   0.222203848585849   0.624864921372098   1.0000000
N2   N   0.777796151414154   0.722233101337985   0.624864921372098   1.0000000
N2   N   0.611103616590477   0.222203848585849   0.624864921372098   1.0000000
N2   N   0.944446477046624   0.222226287426550   0.624979718756401   1.0000000
N2   N   0.277774206209607   0.722225793790402   0.125121598212242   1.0000000
N2   N   0.111114933564639   0.222224133448986   0.124988270532977   1.0000000
N2   N   0.444446715752315   0.222226764837961   0.125494989690754   1.0000000
N2   N   0.611103616590477   0.722233101337985   0.125135078627897   1.0000000
N2   N   0.944457047138296   0.722223496175496   0.125146095391984   1.0000000
N2   N   0.777775866551021   0.222224133448986   0.124988270532977   1.0000000
N2   N   0.111116697951253   0.888883302048748   0.624894627050791   1.0000000
N2   N   0.444433270764155   0.888883302048748   0.624894627050791   1.0000000
N2   N   0.277766898662010   0.388896383409506   0.624864921372098   1.0000000
N2   N   0.611113800513656   0.388886199486327   0.623849485091925   1.0000000
N2   N   0.777775866551021   0.888885066435377   0.625011729466997   1.0000000
N2   N   0.944456503770505   0.388898119973857   0.624987050644223   1.0000000
N2   N   0.111108282870011   0.388898119973857   0.125012949355804   1.0000000
N2   N   0.277774206209607   0.888881745752542   0.125121598212242   1.0000000
N2   N   0.611101880026151   0.888891717129996   0.125012949355804   1.0000000
N2   N   0.444439065639335   0.388886199486327   0.126150514908070   1.0000000
N2   N   0.944456503770505   0.888891717129996   0.125012949355804   1.0000000
N2   N   0.777796151414154   0.388896383409506   0.125135078627897   1.0000000
N2   N   0.277776503824504   0.555566884296116   0.624853904608014   1.0000000
N2   N   0.111108282870011   0.055543496229497   0.624987050644223   1.0000000
N2   N   0.611113800513656   0.555560934360674   0.623849485091925   1.0000000
N2   N   0.444433115703862   0.055542952861712   0.624853904608014   1.0000000
N2   N   0.944457047138296   0.555566884296116   0.624853904608014   1.0000000
N2   N   0.111116697951253   0.555566729235841   0.125105372949185   1.0000000
N2   N   0.777773712573472   0.055553522953393   0.624979718756401   1.0000000
N2   N   0.277776503824504   0.055542952861712   0.125146095391984   1.0000000
N2   N   0.444446715752315   0.555553284247656   0.125494989690754   1.0000000
N2   N   0.777773235162034   0.555553284247656   0.125494989690754   1.0000000
N2   N   0.611101880026151   0.055543496229497   0.125012949355804   1.0000000
N2   N   0.444446715752315   0.555553284247656   0.624505010309226   1.0000000
N2   N   0.944446477046624   0.055553522953393   0.125020281243591   1.0000000
N2   N   0.277774206209607   0.722225793790402   0.624878401787762   1.0000000
N2   N   0.111114933564639   0.222224133448986   0.625011729466997   1.0000000
N2   N   0.444446715752315   0.222226764837961   0.624505010309226   1.0000000
N2   N   0.611103616590477   0.722233101337985   0.624864921372098   1.0000000
N2   N   0.944457047138296   0.722223496175496   0.624853904608014   1.0000000
N2   N   0.777775866551021   0.222224133448986   0.625011729466997   1.0000000
N2   N   0.111118254247463   0.722225793790402   0.125121598212242   1.0000000
N2   N   0.444433115703862   0.722223496175496   0.125146095391984   1.0000000
N2   N   0.277766898662010   0.222203848585849   0.125135078627897   1.0000000
N2   N   0.777796151414154   0.722233101337985   0.125135078627897   1.0000000
N2   N   0.611103616590477   0.222203848585849   0.125135078627897   1.0000000
N2   N   0.944446477046624   0.222226287426550   0.125020281243591   1.0000000
N2   N   0.111108282870011   0.388898119973857   0.624987050644223   1.0000000
N2   N   0.277774206209607   0.888881745752542   0.624878401787762   1.0000000
N2   N   0.611101880026151   0.888891717129996   0.624987050644223   1.0000000
N2   N   0.444439065639335   0.388886199486327   0.623849485091925   1.0000000
N2   N   0.944456503770505   0.888891717129996   0.624987050644223   1.0000000
N2   N   0.111116697951253   0.888883302048748   0.125105372949185   1.0000000
N2   N   0.777796151414154   0.388896383409506   0.624864921372098   1.0000000
N2   N   0.444433270764155   0.888883302048748   0.125105372949185   1.0000000
N2   N   0.277766898662010   0.388896383409506   0.125135078627897   1.0000000
N2   N   0.277776503824504   0.555566884296116   0.125146095391984   1.0000000
N2   N   0.611113800513656   0.388886199486327   0.126150514908070   1.0000000
N2   N   0.777775866551021   0.888885066435377   0.124988270532977   1.0000000
N2   N   0.944456503770505   0.388898119973857   0.125012949355804   1.0000000
N2   N   0.111116697951253   0.555566729235841   0.624894627050791   1.0000000
N2   N   0.277776503824504   0.055542952861712   0.624853904608014   1.0000000
N2   N   0.777773235162034   0.555553284247656   0.624505010309226   1.0000000
N2   N   0.611101880026151   0.055543496229497   0.624987050644223   1.0000000
N2   N   0.944446477046624   0.055553522953393   0.624979718756401   1.0000000
N2   N   0.054299578218325   0.110302697843609   0.375000000000000   1.0000000
N2   N   0.556401003334693   0.621446596672392   0.375000000000000   1.0000000
N2   N   0.387876022074956   0.109085377483272   0.375000000000000   1.0000000
N2   N   0.890914622516745   0.612123977925048   0.375000000000000   1.0000000
N2   N   0.722669786291957   0.110302697843609   0.375000000000000   1.0000000
N2   N   0.055547280479102   0.777776877097246   0.875000000000000   1.0000000
N2   N   0.388896263284842   0.777776877097246   0.875000000000000   1.0000000
N2   N   0.222223642162458   0.277778487747896   0.875000000000000   1.0000000
N2   N   0.722221512252107   0.777776357837544   0.875000000000000   1.0000000
N2   N   0.555558846611140   0.277786997077069   0.875000000000000   1.0000000
N2   N   0.888889062826557   0.277777170537522   0.875000000000000   1.0000000
N2   N   0.222222222222221   0.777777777777779   0.375000000000000   1.0000000
N2   N   0.054299578218325   0.277330213708071   0.375000000000000   1.0000000
N2   N   0.378553403327637   0.268287739995718   0.375000000000000   1.0000000
N2   N   0.555266890641666   0.781909738815975   0.375000000000000   1.0000000
N2   N   0.893309514841032   0.781909738815975   0.375000000000000   1.0000000
N2   N   0.724221044975331   0.275778955024667   0.375000000000000   1.0000000
N2   N   0.055553171649266   0.944446828350737   0.875000000000000   1.0000000
N2   N   0.388896263284842   0.944452719520907   0.875000000000000   1.0000000
N2   N   0.222222411605183   0.444439425186769   0.875000000000000   1.0000000
N2   N   0.555555555555557   0.444444444444443   0.875000000000000   1.0000000
N2   N   0.722222829462508   0.944445225622375   0.875000000000000   1.0000000
N2   N   0.888883680248246   0.444439425186769   0.875000000000000   1.0000000
N2   N   0.055748599450228   0.444830532233794   0.375000000000000   1.0000000
N2   N   0.221903599257071   0.943534894587860   0.375000000000000   1.0000000
N2   N   0.555169467766221   0.944251400549772   0.375000000000000   1.0000000
N2   N   0.378553403327637   0.443598996665226   0.375000000000000   1.0000000
N2   N   0.889697302156371   0.945700421781673   0.375000000000000   1.0000000
N2   N   0.731712260004248   0.443598996665226   0.375000000000000   1.0000000
N2   N   0.222223122902729   0.611103736715163   0.875000000000000   1.0000000
N2   N   0.055554774377624   0.111110937173440   0.875000000000000   1.0000000
N2   N   0.555558846611140   0.611105182867399   0.875000000000000   1.0000000
N2   N   0.388896572734684   0.111126478802705   0.875000000000000   1.0000000
N2   N   0.888873521197289   0.611103427265314   0.875000000000000   1.0000000
N2   N   0.056465105412145   0.611702038002543   0.375000000000000   1.0000000
N2   N   0.722222829462508   0.111110937173440   0.875000000000000   1.0000000
N2   N   0.218090261183995   0.106690485158974   0.375000000000000   1.0000000
N2   N   0.387876022074956   0.612123977925048   0.375000000000000   1.0000000
N2   N   0.731712260004248   0.621446596672392   0.375000000000000   1.0000000
N2   N   0.555266890641666   0.106690485158974   0.375000000000000   1.0000000
N2   N   0.388896572734684   0.611103427265314   0.875000000000000   1.0000000
N2   N   0.888888888888886   0.111111111111114   0.375000000000000   1.0000000
N2   N   0.222222222222221   0.777777777777779   0.875000000000000   1.0000000
N2   N   0.055554774377624   0.277777170537522   0.875000000000000   1.0000000
N2   N   0.388894817132572   0.277786997077069   0.875000000000000   1.0000000
N2   N   0.555560574813237   0.777777588394811   0.875000000000000   1.0000000
N2   N   0.888883680248246   0.777777588394811   0.875000000000000   1.0000000
N2   N   0.722221512252107   0.277778487747896   0.875000000000000   1.0000000
N2   N   0.056465105412145   0.778096400742916   0.375000000000000   1.0000000
N2   N   0.388297961997445   0.778096400742916   0.375000000000000   1.0000000
N2   N   0.218224576716017   0.275778955024667   0.375000000000000   1.0000000
N2   N   0.724221044975331   0.781775423284002   0.375000000000000   1.0000000
N2   N   0.556401003334693   0.268287739995718   0.375000000000000   1.0000000
N2   N   0.889697302156371   0.277330213708071   0.375000000000000   1.0000000
N2   N   0.055553171649266   0.444439676631869   0.875000000000000   1.0000000
N2   N   0.222223122902729   0.944452719520907   0.875000000000000   1.0000000
N2   N   0.555560323368154   0.944446828350737   0.875000000000000   1.0000000
N2   N   0.388894817132572   0.444441153388828   0.875000000000000   1.0000000
N2   N   0.888889062826557   0.944445225622375   0.875000000000000   1.0000000
N2   N   0.055748599450228   0.944251400549772   0.375000000000000   1.0000000
N2   N   0.722213002922938   0.444441153388828   0.875000000000000   1.0000000
N2   N   0.388297961997445   0.943534894587860   0.375000000000000   1.0000000
N2   N   0.218090261183995   0.444733109358374   0.375000000000000   1.0000000
N2   N   0.221903599257071   0.611702038002543   0.375000000000000   1.0000000
N2   N   0.722669786291957   0.945700421781673   0.375000000000000   1.0000000
N2   N   0.893309514841032   0.444733109358374   0.375000000000000   1.0000000
N2   N   0.055547280479102   0.611103736715163   0.875000000000000   1.0000000
N2   N   0.222222411605183   0.111116319751758   0.875000000000000   1.0000000
N2   N   0.722213002922938   0.611105182867399   0.875000000000000   1.0000000
N2   N   0.555560574813237   0.111116319751758   0.875000000000000   1.0000000
N2   N   0.888888888888886   0.111111111111114   0.875000000000000   1.0000000
B2   B   0.108533580585298   0.053669133766657   0.375000000000000   1.0000000
B2   B   0.625461248578055   0.584255830489450   0.375000000000000   1.0000000
B2   B   0.444116467790172   0.053607985979445   0.375000000000000   1.0000000
B2   B   0.946392014020547   0.555883532209857   0.375000000000000   1.0000000
B2   B   0.778432493151419   0.055882913242382   0.375000000000000   1.0000000
B2   B   0.111116928693317   0.722225131013321   0.875000000000000   1.0000000
B2   B   0.444447290307161   0.722249894284546   0.875000000000000   1.0000000
B2   B   0.277712000317575   0.222180451782253   0.875000000000000   1.0000000
B2   B   0.777819548217761   0.722287999682445   0.875000000000000   1.0000000
B2   B   0.611135118131369   0.222180451782253   0.875000000000000   1.0000000
B2   B   0.944437148174263   0.222207629681809   0.875000000000000   1.0000000
B2   B   0.277487427976159   0.722512572023848   0.375000000000000   1.0000000
B2   B   0.108057475511644   0.220695404422486   0.375000000000000   1.0000000
B2   B   0.442641433847274   0.218616201027888   0.375000000000000   1.0000000
B2   B   0.612856360981898   0.730985126182385   0.375000000000000   1.0000000
B2   B   0.946392014020547   0.723841815144034   0.375000000000000   1.0000000
B2   B   0.779304595577509   0.220695404422486   0.375000000000000   1.0000000
B2   B   0.111106720841098   0.888893279158921   0.875000000000000   1.0000000
B2   B   0.444453224984483   0.888893279158921   0.875000000000000   1.0000000
B2   B   0.277712000317575   0.388864881868672   0.875000000000000   1.0000000
B2   B   0.611144019264048   0.388855980735931   0.875000000000000   1.0000000
B2   B   0.777800893689044   0.888935120711408   0.875000000000000   1.0000000
B2   B   0.944456123772995   0.388870397707585   0.875000000000000   1.0000000
B2   B   0.108533580585298   0.388197780151977   0.375000000000000   1.0000000
B2   B   0.277487427976159   0.888308189285647   0.375000000000000   1.0000000
B2   B   0.611802219848052   0.891466419414691   0.375000000000000   1.0000000
B2   B   0.415744169510551   0.374538751421939   0.375000000000000   1.0000000
B2   B   0.946330866233329   0.891466419414691   0.375000000000000   1.0000000
B2   B   0.784795431867133   0.387143639018139   0.375000000000000   1.0000000
B2   B   0.277750105715439   0.555552709692838   0.875000000000000   1.0000000
B2   B   0.111080940601282   0.055543876227008   0.875000000000000   1.0000000
B2   B   0.611144019264048   0.555621371861467   0.875000000000000   1.0000000
B2   B   0.444447290307161   0.055530729355940   0.875000000000000   1.0000000
B2   B   0.944469270644030   0.555552709692838   0.875000000000000   1.0000000
B2   B   0.111216109655839   0.555765552645006   0.375000000000000   1.0000000
B2   B   0.777792370318224   0.055562851825763   0.875000000000000   1.0000000
B2   B   0.276158184855935   0.053607985979445   0.375000000000000   1.0000000
B2   B   0.442641433847274   0.557358566152720   0.375000000000000   1.0000000
B2   B   0.781383798972116   0.557358566152720   0.375000000000000   1.0000000
B2   B   0.611802219848052   0.053669133766657   0.375000000000000   1.0000000
B2   B   0.444421669340730   0.555578330659274   0.875000000000000   1.0000000
B2   B   0.944117086757639   0.055882913242382   0.375000000000000   1.0000000
B2   B   0.277774868986675   0.722225131013321   0.875000000000000   1.0000000
B2   B   0.111064879288595   0.222199106310963   0.875000000000000   1.0000000
B2   B   0.444421669340730   0.222176672014777   0.875000000000000   1.0000000
B2   B   0.611135118131369   0.722287999682445   0.875000000000000   1.0000000
B2   B   0.944469270644030   0.722249894284546   0.875000000000000   1.0000000
B2   B   0.777800893689044   0.222199106310963   0.875000000000000   1.0000000
B2   B   0.111691810714371   0.722512572023848   0.375000000000000   1.0000000
B2   B   0.444116467790172   0.723841815144034   0.375000000000000   1.0000000
B2   B   0.269014873817634   0.215204568132863   0.375000000000000   1.0000000
B2   B   0.784795431867133   0.730985126182385   0.375000000000000   1.0000000
B2   B   0.612856360981898   0.215204568132863   0.375000000000000   1.0000000
B2   B   0.944117086757639   0.221567506848572   0.375000000000000   1.0000000
B2   B   0.111080940601282   0.388870397707585   0.875000000000000   1.0000000
B2   B   0.277774868986675   0.888883071306678   0.875000000000000   1.0000000
B2   B   0.611129602292397   0.888919059398734   0.875000000000000   1.0000000
B2   B   0.444378628138567   0.388855980735931   0.875000000000000   1.0000000
B2   B   0.944456123772995   0.888919059398734   0.875000000000000   1.0000000
B2   B   0.111216109655839   0.888783890344138   0.375000000000000   1.0000000
B2   B   0.777819548217762   0.388864881868672   0.875000000000000   1.0000000
B2   B   0.444234447354990   0.888783890344138   0.375000000000000   1.0000000
B2   B   0.269014873817634   0.387143639018139   0.375000000000000   1.0000000
B2   B   0.276158184855935   0.555883532209857   0.375000000000000   1.0000000
B2   B   0.625461248578055   0.374538751421939   0.375000000000000   1.0000000
B2   B   0.779304595577509   0.891942524488392   0.375000000000000   1.0000000
B2   B   0.946330866233329   0.388197780151977   0.375000000000000   1.0000000
B2   B   0.111106720841098   0.555546775015550   0.875000000000000   1.0000000
B2   B   0.277750105715439   0.055530729355940   0.875000000000000   1.0000000
B2   B   0.777823327985204   0.555578330659274   0.875000000000000   1.0000000
B2   B   0.611129602292397   0.055543876227008   0.875000000000000   1.0000000
B2   B   0.944437148174263   0.055562851825763   0.875000000000000   1.0000000
B2   B   0.055509980439589   0.111074792447348   0.124841139329724   1.0000000
B2   B   0.555494299843336   0.611334350412102   0.125050663350188   1.0000000
B2   B   0.388778257370575   0.110889848074509   0.124926440496984   1.0000000
B2   B   0.889110151925508   0.611221742629403   0.124926440496983   1.0000000
B2   B   0.722231478674421   0.111074792447348   0.124841139329724   1.0000000
B2   B   0.055640167448398   0.777812544851959   0.625077037841578   1.0000000
B2   B   0.388839044070214   0.777812544851959   0.625077037841578   1.0000000
B2   B   0.222079961967873   0.277706647650603   0.625205269950833   1.0000000
B2   B   0.722293352349411   0.777920038032129   0.625205269950833   1.0000000
B2   B   0.555494299843336   0.277493282764591   0.624949336649789   1.0000000
B2   B   0.888925207552653   0.277768521325575   0.625158860670282   1.0000000
B2   B   0.222222222222221   0.777777777777779   0.124940658347358   1.0000000
B2   B   0.055509980439589   0.277768521325575   0.124841139329724   1.0000000
B2   B   0.388665649587895   0.277493282764591   0.125050663350188   1.0000000
B2   B   0.555526160300736   0.777887850413299   0.124831594605838   1.0000000
B2   B   0.889028356779189   0.777887850413299   0.124831594605838   1.0000000
B2   B   0.722293352349411   0.277706647650603   0.124794730049176   1.0000000
B2   B   0.055567816770520   0.944432183229504   0.625135587712816   1.0000000
B2   B   0.388839044070214   0.944359832551616   0.625077037841578   1.0000000
B2   B   0.222112149586709   0.444473839699244   0.625168405394185   1.0000000
B2   B   0.555555555555557   0.444444444444443   0.625283607179565   1.0000000
B2   B   0.722231478674421   0.944490019560368   0.625158860670282   1.0000000
B2   B   0.889028356779189   0.444473839699244   0.625168405394185   1.0000000
B2   B   0.055567816770520   0.444468966874367   0.124864412287181   1.0000000
B2   B   0.222187455148053   0.944359832551616   0.124922962158408   1.0000000
B2   B   0.555531033125628   0.944432183229504   0.124864412287181   1.0000000
B2   B   0.388665649587895   0.444505700156639   0.125050663350188   1.0000000
B2   B   0.888925207552653   0.944490019560368   0.124841139329724   1.0000000
B2   B   0.722506717235451   0.444505700156639   0.125050663350188   1.0000000
B2   B   0.222187455148053   0.611160955929792   0.625077037841578   1.0000000
B2   B   0.055509980439589   0.111074792447348   0.625158860670282   1.0000000
B2   B   0.555494299843336   0.611334350412102   0.624949336649789   1.0000000
B2   B   0.388778257370575   0.110889848074509   0.625073559503041   1.0000000
B2   B   0.889110151925508   0.611221742629403   0.625073559503041   1.0000000
B2   B   0.055640167448398   0.611160955929792   0.124922962158408   1.0000000
B2   B   0.722231478674421   0.111074792447348   0.625158860670282   1.0000000
B2   B   0.222112149586709   0.110971643220806   0.124831594605838   1.0000000
B2   B   0.388778257370575   0.611221742629403   0.124926440496983   1.0000000
B2   B   0.722506717235451   0.611334350412102   0.125050663350188   1.0000000
B2   B   0.555526160300736   0.110971643220806   0.124831594605838   1.0000000
B2   B   0.388778257370575   0.611221742629403   0.625073559503041   1.0000000
B2   B   0.888888888888886   0.111111111111114   0.124888364600631   1.0000000
B2   B   0.222222222222221   0.777777777777779   0.625059341652642   1.0000000
B2   B   0.055509980439589   0.277768521325575   0.625158860670282   1.0000000
B2   B   0.388665649587895   0.277493282764591   0.624949336649789   1.0000000
B2   B   0.555526160300736   0.777887850413299   0.625168405394185   1.0000000
B2   B   0.889028356779189   0.777887850413299   0.625168405394185   1.0000000
B2   B   0.722293352349411   0.277706647650603   0.625205269950833   1.0000000
B2   B   0.055640167448398   0.777812544851959   0.124922962158408   1.0000000
B2   B   0.388839044070214   0.777812544851959   0.124922962158408   1.0000000
B2   B   0.222079961967873   0.277706647650603   0.124794730049176   1.0000000
B2   B   0.722293352349411   0.777920038032129   0.124794730049176   1.0000000
B2   B   0.555494299843336   0.277493282764591   0.125050663350188   1.0000000
B2   B   0.888925207552653   0.277768521325575   0.124841139329724   1.0000000
B2   B   0.055567816770520   0.444468966874367   0.625135587712816   1.0000000
B2   B   0.222187455148053   0.944359832551616   0.625077037841578   1.0000000
B2   B   0.555531033125628   0.944432183229504   0.625135587712816   1.0000000
B2   B   0.388665649587895   0.444505700156639   0.624949336649789   1.0000000
B2   B   0.888925207552653   0.944490019560368   0.625158860670282   1.0000000
B2   B   0.055567816770520   0.944432183229504   0.124864412287181   1.0000000
B2   B   0.722506717235451   0.444505700156639   0.624949336649789   1.0000000
B2   B   0.388839044070214   0.944359832551616   0.124922962158408   1.0000000
B2   B   0.222112149586709   0.444473839699244   0.124831594605838   1.0000000
B2   B   0.222187455148053   0.611160955929792   0.124922962158408   1.0000000
B2   B   0.555555555555557   0.444444444444443   0.124716392820467   1.0000000
B2   B   0.722231478674421   0.944490019560368   0.124841139329724   1.0000000
B2   B   0.889028356779189   0.444473839699244   0.124831594605838   1.0000000
B2   B   0.055640167448398   0.611160955929792   0.625077037841578   1.0000000
B2   B   0.222112149586709   0.110971643220806   0.625168405394185   1.0000000
B2   B   0.722506717235451   0.611334350412102   0.624949336649789   1.0000000
B2   B   0.555526160300736   0.110971643220806   0.625168405394185   1.0000000
B2   B   0.888888888888886   0.111111111111114   0.625111635399354   1.0000000


