data_1
_audit_creation_method   'vasp2cif'
_cell_length_a    14.93631414619966
_cell_length_b    14.936314146199727
_cell_length_c    13.341276283792837
_cell_angle_alpha    90.0
_cell_angle_beta    90.0
_cell_angle_gamma    119.99999999999984

_symmetry_space_group_name_H-M    'P 1'
loop_
_atom_site_label
_atom_site_type_symbol
_atom_site_fract_x
_atom_site_fract_y
_atom_site_fract_z
_atom_site_occupancy
O2   O   0.555555555555557   0.444444444444443   0.375000000000000   1.0000000
N2   N   0.111117937004377   0.055547260972969   0.125106785458596   1.0000000
N2   N   0.611097505100804   0.555528343534937   0.125733416538444   1.0000000
N2   N   0.444431655141409   0.055539694662069   0.125127874333362   1.0000000
N2   N   0.944460305337930   0.555568344858593   0.125127874333362   1.0000000
N2   N   0.777769536932705   0.055551435133019   0.125098355869586   1.0000000
N2   N   0.111119494138649   0.722226413735993   0.624901884471788   1.0000000
N2   N   0.444431655141409   0.722225293812677   0.624872125666635   1.0000000
N2   N   0.277789742024528   0.222219138526780   0.624824265337745   1.0000000
N2   N   0.777780861473223   0.722210257975474   0.624824265337745   1.0000000
N2   N   0.611096063168924   0.222219138526780   0.624824265337745   1.0000000
N2   N   0.944448564866983   0.222230463067297   0.624901644130413   1.0000000
N2   N   0.277773586264012   0.722226413735993   0.125098115528214   1.0000000
N2   N   0.111125187609863   0.222229260471595   0.125117638153242   1.0000000
N2   N   0.444439977507964   0.222213288349264   0.125248447074492   1.0000000
N2   N   0.611096063168924   0.722210257975474   0.125175734662255   1.0000000
N2   N   0.944460305337930   0.722225293812677   0.125127874333362   1.0000000
N2   N   0.777770739528404   0.222229260471595   0.125117638153242   1.0000000
N2   N   0.111117154620162   0.888882845379838   0.624898200027427   1.0000000
N2   N   0.444432357426350   0.888882845379838   0.624898200027427   1.0000000
N2   N   0.277789742024528   0.388903936831077   0.624824265337745   1.0000000
N2   N   0.611097505100804   0.388902494899196   0.624266583461557   1.0000000
N2   N   0.777770739528404   0.888874812390136   0.624882361846752   1.0000000
N2   N   0.944452739027031   0.388904009364736   0.624893214541403   1.0000000
N2   N   0.111117937004377   0.388904009364736   0.125106785458596   1.0000000
N2   N   0.277773586264012   0.888880505861353   0.125098115528214   1.0000000
N2   N   0.611095990635260   0.888882062995624   0.125106785458596   1.0000000
N2   N   0.444471656465064   0.388902494899196   0.125733416538444   1.0000000
N2   N   0.944452739027031   0.888882062995624   0.125106785458596   1.0000000
N2   N   0.777780861473223   0.388903936831077   0.125175734662255   1.0000000
N2   N   0.277774706187323   0.555568344858593   0.624872125666635   1.0000000
N2   N   0.111117937004377   0.055547260972969   0.624893214541403   1.0000000
N2   N   0.611097505100804   0.555528343534937   0.624266583461557   1.0000000
N2   N   0.444431655141409   0.055539694662069   0.624872125666635   1.0000000
N2   N   0.944460305337930   0.555568344858593   0.624872125666635   1.0000000
N2   N   0.111117154620162   0.555567642573647   0.125101799972574   1.0000000
N2   N   0.777769536932705   0.055551435133019   0.624901644130413   1.0000000
N2   N   0.277774706187323   0.055539694662069   0.125127874333362   1.0000000
N2   N   0.444439977507964   0.555560022492037   0.125248447074492   1.0000000
N2   N   0.777786711650737   0.555560022492037   0.125248447074492   1.0000000
N2   N   0.611095990635260   0.055547260972969   0.125106785458596   1.0000000
N2   N   0.444439977507964   0.555560022492037   0.624751552925508   1.0000000
N2   N   0.944448564866983   0.055551435133019   0.125098355869586   1.0000000
N2   N   0.277773586264012   0.722226413735993   0.624901884471788   1.0000000
N2   N   0.111125187609863   0.222229260471595   0.624882361846752   1.0000000
N2   N   0.444439977507964   0.222213288349264   0.624751552925508   1.0000000
N2   N   0.611096063168924   0.722210257975474   0.624824265337745   1.0000000
N2   N   0.944460305337930   0.722225293812677   0.624872125666635   1.0000000
N2   N   0.777770739528404   0.222229260471595   0.624882361846752   1.0000000
N2   N   0.111119494138649   0.722226413735993   0.125098115528214   1.0000000
N2   N   0.444431655141409   0.722225293812677   0.125127874333362   1.0000000
N2   N   0.277789742024528   0.222219138526780   0.125175734662255   1.0000000
N2   N   0.777780861473223   0.722210257975474   0.125175734662255   1.0000000
N2   N   0.611096063168924   0.222219138526780   0.125175734662255   1.0000000
N2   N   0.944448564866983   0.222230463067297   0.125098355869586   1.0000000
N2   N   0.111117937004377   0.388904009364736   0.624893214541403   1.0000000
N2   N   0.277773586264012   0.888880505861353   0.624901884471788   1.0000000
N2   N   0.611095990635260   0.888882062995624   0.624893214541403   1.0000000
N2   N   0.444471656465064   0.388902494899196   0.624266583461557   1.0000000
N2   N   0.944452739027031   0.888882062995624   0.624893214541403   1.0000000
N2   N   0.111117154620162   0.888882845379838   0.125101799972574   1.0000000
N2   N   0.777780861473223   0.388903936831077   0.624824265337745   1.0000000
N2   N   0.444432357426350   0.888882845379838   0.125101799972574   1.0000000
N2   N   0.277789742024528   0.388903936831077   0.125175734662255   1.0000000
N2   N   0.277774706187323   0.555568344858593   0.125127874333362   1.0000000
N2   N   0.611097505100804   0.388902494899196   0.125733416538444   1.0000000
N2   N   0.777770739528404   0.888874812390136   0.125117638153242   1.0000000
N2   N   0.944452739027031   0.388904009364736   0.125106785458596   1.0000000
N2   N   0.111117154620162   0.555567642573647   0.624898200027427   1.0000000
N2   N   0.277774706187323   0.055539694662069   0.624872125666635   1.0000000
N2   N   0.777786711650737   0.555560022492037   0.624751552925508   1.0000000
N2   N   0.611095990635260   0.055547260972969   0.624893214541403   1.0000000
N2   N   0.944448564866983   0.055551435133019   0.624901644130413   1.0000000
N2   N   0.055604864841133   0.111165275393821   0.375000000000000   1.0000000
N2   N   0.555415399611341   0.610163118702001   0.375000000000000   1.0000000
N2   N   0.389054717224101   0.111442767781545   0.375000000000000   1.0000000
N2   N   0.888557232218455   0.610945282775900   0.375000000000000   1.0000000
N2   N   0.722227077219352   0.111165275393821   0.375000000000000   1.0000000
N2   N   0.055549966923676   0.777778212378789   0.875000000000000   1.0000000
N2   N   0.388894912121775   0.777778212378789   0.875000000000000   1.0000000
N2   N   0.222220076689571   0.277776705011453   0.875000000000000   1.0000000
N2   N   0.722223294988543   0.777779923310430   0.875000000000000   1.0000000
N2   N   0.555558924285413   0.277783630150142   0.875000000000000   1.0000000
N2   N   0.888888824146395   0.277775008719115   0.875000000000000   1.0000000
N2   N   0.222222222222221   0.777777777777779   0.375000000000000   1.0000000
N2   N   0.055604864841133   0.277772922780648   0.375000000000000   1.0000000
N2   N   0.389836881298001   0.278585614242675   0.375000000000000   1.0000000
N2   N   0.555626933435546   0.777513120306956   0.375000000000000   1.0000000
N2   N   0.888552853538071   0.777513120306956   0.375000000000000   1.0000000
N2   N   0.722098302372259   0.277901697627737   0.375000000000000   1.0000000
N2   N   0.055552522756138   0.944447477243862   0.875000000000000   1.0000000
N2   N   0.388894912121775   0.944450033076328   0.875000000000000   1.0000000
N2   N   0.222220399943445   0.444438676931128   0.875000000000000   1.0000000
N2   N   0.555555555555557   0.444444444444443   0.875000000000000   1.0000000
N2   N   0.722224991280887   0.944447148760617   0.875000000000000   1.0000000
N2   N   0.888884943654348   0.444438676931128   0.875000000000000   1.0000000
N2   N   0.055519449837154   0.444372233007637   0.375000000000000   1.0000000
N2   N   0.222265449402507   0.944584026923540   0.375000000000000   1.0000000
N2   N   0.555627766992364   0.944480550162844   0.375000000000000   1.0000000
N2   N   0.389836881298001   0.444584600388659   0.375000000000000   1.0000000
N2   N   0.888834724606177   0.944395135158865   0.375000000000000   1.0000000
N2   N   0.721414385757325   0.444584600388659   0.375000000000000   1.0000000
N2   N   0.222221787621213   0.611105087878227   0.875000000000000   1.0000000
N2   N   0.055552851239381   0.111111175853605   0.875000000000000   1.0000000
N2   N   0.555558924285413   0.611108627468606   0.875000000000000   1.0000000
N2   N   0.388893142719278   0.111119618771900   0.875000000000000   1.0000000
N2   N   0.888880381228101   0.611106857280718   0.875000000000000   1.0000000
N2   N   0.055415973076462   0.611014755812305   0.375000000000000   1.0000000
N2   N   0.722224991280887   0.111111175853605   0.875000000000000   1.0000000
N2   N   0.222486879693043   0.111447146461926   0.375000000000000   1.0000000
N2   N   0.389054717224101   0.610945282775900   0.375000000000000   1.0000000
N2   N   0.721414385757325   0.610163118702001   0.375000000000000   1.0000000
N2   N   0.555626933435546   0.111447146461926   0.375000000000000   1.0000000
N2   N   0.388893142719278   0.611106857280718   0.875000000000000   1.0000000
N2   N   0.888888888888886   0.111111111111114   0.375000000000000   1.0000000
N2   N   0.222222222222221   0.777777777777779   0.875000000000000   1.0000000
N2   N   0.055552851239381   0.277775008719115   0.875000000000000   1.0000000
N2   N   0.388891372531397   0.277783630150142   0.875000000000000   1.0000000
N2   N   0.555561323068873   0.777779600056559   0.875000000000000   1.0000000
N2   N   0.888884943654348   0.777779600056559   0.875000000000000   1.0000000
N2   N   0.722223294988543   0.277776705011453   0.875000000000000   1.0000000
N2   N   0.055415973076462   0.777734550597494   0.375000000000000   1.0000000
N2   N   0.388985244187693   0.777734550597494   0.375000000000000   1.0000000
N2   N   0.222470061922140   0.277901697627737   0.375000000000000   1.0000000
N2   N   0.722098302372259   0.777529938077862   0.375000000000000   1.0000000
N2   N   0.555415399611341   0.278585614242675   0.375000000000000   1.0000000
N2   N   0.888834724606177   0.277772922780648   0.375000000000000   1.0000000
N2   N   0.055552522756138   0.444438378845606   0.875000000000000   1.0000000
N2   N   0.222221787621213   0.944450033076328   0.875000000000000   1.0000000
N2   N   0.555561621154393   0.944447477243862   0.875000000000000   1.0000000
N2   N   0.388891372531397   0.444441075714588   0.875000000000000   1.0000000
N2   N   0.888888824146395   0.944447148760617   0.875000000000000   1.0000000
N2   N   0.055519449837154   0.944480550162844   0.375000000000000   1.0000000
N2   N   0.722216369849853   0.444441075714588   0.875000000000000   1.0000000
N2   N   0.388985244187693   0.944584026923540   0.375000000000000   1.0000000
N2   N   0.222486879693043   0.444373066564453   0.375000000000000   1.0000000
N2   N   0.222265449402507   0.611014755812305   0.375000000000000   1.0000000
N2   N   0.722227077219352   0.944395135158865   0.375000000000000   1.0000000
N2   N   0.888552853538071   0.444373066564453   0.375000000000000   1.0000000
N2   N   0.055549966923676   0.611105087878227   0.875000000000000   1.0000000
N2   N   0.222220399943445   0.111115056345653   0.875000000000000   1.0000000
N2   N   0.722216369849853   0.611108627468606   0.875000000000000   1.0000000
N2   N   0.555561323068873   0.111115056345653   0.875000000000000   1.0000000
N2   N   0.888888888888886   0.111111111111114   0.875000000000000   1.0000000
B2   B   0.110963833133599   0.055546556261555   0.375000000000000   1.0000000
B2   B   0.612766955810980   0.558867244955285   0.375000000000000   1.0000000
B2   B   0.444501632222207   0.055409800080919   0.375000000000000   1.0000000
B2   B   0.944590199919080   0.555498367777789   0.375000000000000   1.0000000
B2   B   0.777856906079228   0.055595119706282   0.375000000000000   1.0000000
B2   B   0.111117062355861   0.722225197844595   0.875000000000000   1.0000000
B2   B   0.444444651110081   0.722244662516333   0.875000000000000   1.0000000
B2   B   0.277728665267737   0.222190486127572   0.875000000000000   1.0000000
B2   B   0.777809513872426   0.722271334732259   0.875000000000000   1.0000000
B2   B   0.611128487526509   0.222190486127572   0.875000000000000   1.0000000
B2   B   0.944438186602154   0.222209706537641   0.875000000000000   1.0000000
B2   B   0.277773714188362   0.722226285811638   0.375000000000000   1.0000000
B2   B   0.110782715446244   0.222058024389787   0.375000000000000   1.0000000
B2   B   0.444073580696144   0.221480494725623   0.375000000000000   1.0000000
B2   B   0.611486257164369   0.722849536137298   0.375000000000000   1.0000000
B2   B   0.944590199919080   0.722425165474622   0.375000000000000   1.0000000
B2   B   0.777941975610212   0.222058024389787   0.375000000000000   1.0000000
B2   B   0.111108200100862   0.888891799899135   0.875000000000000   1.0000000
B2   B   0.444450266464945   0.888891799899135   0.875000000000000   1.0000000
B2   B   0.277728665267737   0.388871512473495   0.875000000000000   1.0000000
B2   B   0.611129331510889   0.388870668489112   0.875000000000000   1.0000000
B2   B   0.777796213451496   0.888925760236323   0.875000000000000   1.0000000
B2   B   0.944454918516933   0.388875115266841   0.875000000000000   1.0000000
B2   B   0.110963833133599   0.388750610205373   0.375000000000000   1.0000000
B2   B   0.277773714188362   0.888880761710052   0.375000000000000   1.0000000
B2   B   0.611249389794629   0.889036166866402   0.375000000000000   1.0000000
B2   B   0.441132755044716   0.387233044189022   0.375000000000000   1.0000000
B2   B   0.944453443738440   0.889036166866402   0.375000000000000   1.0000000
B2   B   0.778029945639597   0.388513742835630   0.375000000000000   1.0000000
B2   B   0.277755337483667   0.555555348889921   0.875000000000000   1.0000000
B2   B   0.111086863416582   0.055545081483068   0.875000000000000   1.0000000
B2   B   0.611129331510889   0.555591996355104   0.875000000000000   1.0000000
B2   B   0.444444651110081   0.055533321927086   0.875000000000000   1.0000000
B2   B   0.944466678072913   0.555555348889921   0.875000000000000   1.0000000
B2   B   0.111069109043021   0.555471551419371   0.375000000000000   1.0000000
B2   B   0.777790293462360   0.055561813397847   0.875000000000000   1.0000000
B2   B   0.277574834525375   0.055409800080919   0.375000000000000   1.0000000
B2   B   0.444073580696144   0.555926419303856   0.375000000000000   1.0000000
B2   B   0.778519505274376   0.555926419303856   0.375000000000000   1.0000000
B2   B   0.611249389794629   0.055546556261555   0.375000000000000   1.0000000
B2   B   0.444425950175025   0.555574049824970   0.875000000000000   1.0000000
B2   B   0.944404880293717   0.055595119706282   0.375000000000000   1.0000000
B2   B   0.277774802155406   0.722225197844595   0.875000000000000   1.0000000
B2   B   0.111074239763678   0.222203786548504   0.875000000000000   1.0000000
B2   B   0.444425950175025   0.222185233683389   0.875000000000000   1.0000000
B2   B   0.611128487526509   0.722271334732259   0.875000000000000   1.0000000
B2   B   0.944466678072913   0.722244662516333   0.875000000000000   1.0000000
B2   B   0.777796213451496   0.222203786548504   0.875000000000000   1.0000000
B2   B   0.111119238289950   0.722226285811638   0.375000000000000   1.0000000
B2   B   0.444501632222207   0.722425165474622   0.375000000000000   1.0000000
B2   B   0.277150463862699   0.221970054360400   0.375000000000000   1.0000000
B2   B   0.778029945639597   0.722849536137298   0.375000000000000   1.0000000
B2   B   0.611486257164369   0.221970054360400   0.375000000000000   1.0000000
B2   B   0.944404880293717   0.222143093920772   0.375000000000000   1.0000000
B2   B   0.111086863416582   0.388875115266841   0.875000000000000   1.0000000
B2   B   0.277774802155406   0.888882937644141   0.875000000000000   1.0000000
B2   B   0.611124884733158   0.888913136583420   0.875000000000000   1.0000000
B2   B   0.444408003644897   0.388870668489112   0.875000000000000   1.0000000
B2   B   0.944454918516933   0.888913136583420   0.875000000000000   1.0000000
B2   B   0.111069109043021   0.888930890956979   0.375000000000000   1.0000000
B2   B   0.777809513872426   0.388871512473495   0.875000000000000   1.0000000
B2   B   0.444528448580629   0.888930890956979   0.375000000000000   1.0000000
B2   B   0.277150463862699   0.388513742835630   0.375000000000000   1.0000000
B2   B   0.277574834525375   0.555498367777789   0.375000000000000   1.0000000
B2   B   0.612766955810980   0.387233044189022   0.375000000000000   1.0000000
B2   B   0.777941975610212   0.889217284553756   0.375000000000000   1.0000000
B2   B   0.944453443738440   0.388750610205373   0.375000000000000   1.0000000
B2   B   0.111108200100862   0.555549733535053   0.875000000000000   1.0000000
B2   B   0.277755337483667   0.055533321927086   0.875000000000000   1.0000000
B2   B   0.777814766316614   0.555574049824970   0.875000000000000   1.0000000
B2   B   0.611124884733158   0.055545081483068   0.875000000000000   1.0000000
B2   B   0.944438186602154   0.055561813397847   0.875000000000000   1.0000000
B2   B   0.055527575424836   0.111080737004578   0.124906427419178   1.0000000
B2   B   0.555512021741558   0.611256578533321   0.124777816967276   1.0000000
B2   B   0.388797583971340   0.110928501276020   0.124833557862950   1.0000000
B2   B   0.889071498723978   0.611202416028663   0.124833557862950   1.0000000
B2   B   0.722219828246403   0.111080737004578   0.124906427419178   1.0000000
B2   B   0.055629906233479   0.777805880902367   0.625089877226116   1.0000000
B2   B   0.388842641335551   0.777805880902367   0.625089877226116   1.0000000
B2   B   0.222121540081858   0.277727436707595   0.625165651640371   1.0000000
B2   B   0.722272563292399   0.777878459918145   0.625165651640371   1.0000000
B2   B   0.555512021741558   0.277588776541576   0.625222183032727   1.0000000
B2   B   0.888919262995423   0.277780171753593   0.625093572580820   1.0000000
B2   B   0.222222222222221   0.777777777777779   0.124922218156417   1.0000000
B2   B   0.055527575424836   0.277780171753593   0.124906427419178   1.0000000
B2   B   0.388743421466682   0.277588776541576   0.124777816967276   1.0000000
B2   B   0.555517649087393   0.777857695889919   0.124860245894258   1.0000000
B2   B   0.889006713469192   0.777857695889919   0.124860245894258   1.0000000
B2   B   0.722272563292399   0.277727436707595   0.124834348359627   1.0000000
B2   B   0.055572228617272   0.944427771382730   0.625089630099032   1.0000000
B2   B   0.388842641335551   0.944370093766523   0.625089877226116   1.0000000
B2   B   0.222142304110077   0.444482350912605   0.625139754105741   1.0000000
B2   B   0.555555555555557   0.444444444444443   0.625582344870769   1.0000000
B2   B   0.722219828246403   0.944472424575170   0.625093572580820   1.0000000
B2   B   0.889006713469192   0.444482350912605   0.625139754105741   1.0000000
B2   B   0.055572228617272   0.444477790567873   0.124910369900968   1.0000000
B2   B   0.222194119097634   0.944370093766523   0.124910122773883   1.0000000
B2   B   0.555522209432124   0.944427771382730   0.124910369900968   1.0000000
B2   B   0.388743421466682   0.444487978258437   0.124777816967276   1.0000000
B2   B   0.888919262995423   0.944472424575170   0.124906427419178   1.0000000
B2   B   0.722411223458421   0.444487978258437   0.124777816967276   1.0000000
B2   B   0.222194119097634   0.611157358664449   0.625089877226116   1.0000000
B2   B   0.055527575424836   0.111080737004578   0.625093572580820   1.0000000
B2   B   0.555512021741558   0.611256578533321   0.625222183032727   1.0000000
B2   B   0.388797583971340   0.110928501276020   0.625166442137049   1.0000000
B2   B   0.889071498723978   0.611202416028663   0.625166442137049   1.0000000
B2   B   0.055629906233479   0.611157358664449   0.124910122773883   1.0000000
B2   B   0.722219828246403   0.111080737004578   0.625093572580820   1.0000000
B2   B   0.222142304110077   0.110993286530808   0.124860245894258   1.0000000
B2   B   0.388797583971340   0.611202416028663   0.124833557862950   1.0000000
B2   B   0.722411223458421   0.611256578533321   0.124777816967276   1.0000000
B2   B   0.555517649087393   0.110993286530808   0.124860245894258   1.0000000
B2   B   0.388797583971340   0.611202416028663   0.625166442137049   1.0000000
B2   B   0.888888888888886   0.111111111111114   0.124920136253366   1.0000000
B2   B   0.222222222222221   0.777777777777779   0.625077781843584   1.0000000
B2   B   0.055527575424836   0.277780171753593   0.625093572580820   1.0000000
B2   B   0.388743421466682   0.277588776541576   0.625222183032727   1.0000000
B2   B   0.555517649087393   0.777857695889919   0.625139754105741   1.0000000
B2   B   0.889006713469192   0.777857695889919   0.625139754105741   1.0000000
B2   B   0.722272563292399   0.277727436707595   0.625165651640371   1.0000000
B2   B   0.055629906233479   0.777805880902367   0.124910122773883   1.0000000
B2   B   0.388842641335551   0.777805880902367   0.124910122773883   1.0000000
B2   B   0.222121540081858   0.277727436707595   0.124834348359627   1.0000000
B2   B   0.722272563292399   0.777878459918145   0.124834348359627   1.0000000
B2   B   0.555512021741558   0.277588776541576   0.124777816967276   1.0000000
B2   B   0.888919262995423   0.277780171753593   0.124906427419178   1.0000000
B2   B   0.055572228617272   0.444477790567873   0.625089630099032   1.0000000
B2   B   0.222194119097634   0.944370093766523   0.625089877226116   1.0000000
B2   B   0.555522209432124   0.944427771382730   0.625089630099032   1.0000000
B2   B   0.388743421466682   0.444487978258437   0.625222183032727   1.0000000
B2   B   0.888919262995423   0.944472424575170   0.625093572580820   1.0000000
B2   B   0.055572228617272   0.944427771382730   0.124910369900968   1.0000000
B2   B   0.722411223458421   0.444487978258437   0.625222183032727   1.0000000
B2   B   0.388842641335551   0.944370093766523   0.124910122773883   1.0000000
B2   B   0.222142304110077   0.444482350912605   0.124860245894258   1.0000000
B2   B   0.222194119097634   0.611157358664449   0.124910122773883   1.0000000
B2   B   0.555555555555557   0.444444444444443   0.124417655129226   1.0000000
B2   B   0.722219828246403   0.944472424575170   0.124906427419178   1.0000000
B2   B   0.889006713469192   0.444482350912605   0.124860245894258   1.0000000
B2   B   0.055629906233479   0.611157358664449   0.625089877226116   1.0000000
B2   B   0.222142304110077   0.110993286530808   0.625139754105741   1.0000000
B2   B   0.722411223458421   0.611256578533321   0.625222183032727   1.0000000
B2   B   0.555517649087393   0.110993286530808   0.625139754105741   1.0000000
B2   B   0.888888888888886   0.111111111111114   0.625079863746636   1.0000000


