data_1
_audit_creation_method   'vasp2cif'
_cell_length_a    17.52789999999977
_cell_length_b    17.52789999999977
_cell_length_c    15.0
_cell_angle_alpha    90.0
_cell_angle_beta    90.0
_cell_angle_gamma    119.99999999999916

_symmetry_space_group_name_H-M    'P 1'
loop_
_atom_site_label
_atom_site_type_symbol
_atom_site_fract_x
_atom_site_fract_y
_atom_site_fract_z
_atom_site_occupancy
B2   B   0.906734086069986   0.954018447279133   0.111055134493585   1.0000000
B2   B   0.904518072260473   0.095483948935530   0.111080172067201   1.0000000
B2   B   0.903820155869763   0.237904839421504   0.111080230501077   1.0000000
B2   B   0.904514453515056   0.380890732781574   0.111017405166307   1.0000000
B2   B   0.906852611919873   0.524257845746561   0.111085837486544   1.0000000
B2   B   0.907413455229815   0.667777225191043   0.111155944480112   1.0000000
B2   B   0.908240063479494   0.811737661020938   0.111105584654963   1.0000000
B2   B   0.048223351786352   0.951778669409648   0.111072812935055   1.0000000
B2   B   0.045983573916871   0.093267935126007   0.111055134493585   1.0000000
B2   B   0.044899763283144   0.236164355442793   0.110972913360034   1.0000000
B2   B   0.045376669731929   0.380040698855743   0.110938191220107   1.0000000
B2   B   0.046962808167783   0.523804679101997   0.110978095911649   1.0000000
B2   B   0.048889393432624   0.666818839936309   0.111085090462245   1.0000000
B2   B   0.049048888151067   0.809506512623387   0.111111901112108   1.0000000
B2   B   0.190495508572623   0.950953133044931   0.111111901112108   1.0000000
B2   B   0.188264360175062   0.091761957716499   0.111105584654963   1.0000000
B2   B   0.184571496666799   0.232139736718761   0.110950124579477   1.0000000
B2   B   0.184958995222406   0.377290834285752   0.110880734673551   1.0000000
B2   B   0.186399881769736   0.523218616450024   0.110901806403248   1.0000000
B2   B   0.190918547969849   0.666512820465504   0.110972317049668   1.0000000
B2   B   0.191073140801978   0.808928880394033   0.111006665462067   1.0000000
B2   B   0.333183181260691   0.951112627763378   0.111085090462245   1.0000000
B2   B   0.332224796005962   0.092588565966190   0.111155944480112   1.0000000
B2   B   0.327739142864084   0.231392402598769   0.111017193809250   1.0000000
B2   B   0.321773907172926   0.370171775217328   0.110989666606937   1.0000000
B2   B   0.322527037970506   0.519226528720183   0.111062933869198   1.0000000
B2   B   0.333680059124555   0.666321962072441   0.111002284550411   1.0000000
B2   B   0.333489200731482   0.809083473226160   0.110972317049668   1.0000000
B2   B   0.476197342094995   0.953039213028219   0.110978095911649   1.0000000
B2   B   0.475744175450442   0.093149409276117   0.111085837486544   1.0000000
B2   B   0.475350557168097   0.232506974888964   0.111074899217210   1.0000000
B2   B   0.466025071021811   0.361555555478729   0.111192295232437   1.0000000
B2   B   0.480775492476817   0.677474983226486   0.111062933869198   1.0000000
B2   B   0.476783404746985   0.813602139426261   0.110901806403248   1.0000000
B2   B   0.619961322340258   0.954625351464074   0.110938191220107   1.0000000
B2   B   0.619111288414430   0.095487567680936   0.111017405166307   1.0000000
B2   B   0.619117527716065   0.236947767809783   0.111016857376463   1.0000000
B2   B   0.620499236674965   0.379502784521037   0.111047691607145   1.0000000
B2   B   0.638446465717276   0.533976950175183   0.111192295232437   1.0000000
B2   B   0.629830245978673   0.678228114024069   0.110989666606937   1.0000000
B2   B   0.622711186910255   0.815043025973601   0.110880734673551   1.0000000
B2   B   0.763837665753213   0.955102257912857   0.110972913360034   1.0000000
B2   B   0.762097181774497   0.096181865326235   0.111080230501077   1.0000000
B2   B   0.761859804195992   0.238142217000006   0.111066753221497   1.0000000
B2   B   0.763054253386218   0.380884493479935   0.111016857376463   1.0000000
B2   B   0.767495046307044   0.524651464028915   0.111074899217210   1.0000000
B2   B   0.768609618597236   0.672262878332914   0.111017193809250   1.0000000
B2   B   0.767862284477242   0.815430524529204   0.110950124579477   1.0000000
N2   N   0.954121867669925   0.906072385276718   0.111058210979592   1.0000000
N2   N   0.952087989303343   0.047913412614661   0.111054806866654   1.0000000
N2   N   0.950701779553939   0.189924530645802   0.111041462438195   1.0000000
N2   N   0.950981483885483   0.332734516140872   0.110999862987535   1.0000000
N2   N   0.952731334850943   0.475948119971634   0.111002696098800   1.0000000
N2   N   0.954280678095448   0.619481597800765   0.111129911963936   1.0000000
N2   N   0.954647465081045   0.762898776057420   0.111148783779176   1.0000000
N2   N   0.095819860553777   0.904181541364229   0.111056802839567   1.0000000
N2   N   0.093929016641293   0.045879534248082   0.111058210979592   1.0000000
N2   N   0.090941370889751   0.187076003117869   0.110971556120545   1.0000000
N2   N   0.091065267323546   0.330960811928113   0.110882533884687   1.0000000
N2   N   0.092439345089449   0.475288693975651   0.110880454111418   1.0000000
N2   N   0.095851977219875   0.618926750715497   0.110982309778835   1.0000000
N2   N   0.096328318198598   0.761736879556721   0.111035593798298   1.0000000
N2   N   0.238264522361276   0.903673083719401   0.111035593798298   1.0000000
N2   N   0.237102625860588   0.045353936836964   0.111148783779176   1.0000000
N2   N   0.233369012107206   0.185459086636081   0.111003632176932   1.0000000
N2   N   0.228515766835324   0.325507422520240   0.110849007512356   1.0000000
N2   N   0.229710673922055   0.473329046162908   0.110862101987192   1.0000000
N2   N   0.237985788799723   0.618637237743245   0.110909727520937   1.0000000
N2   N   0.238533155682992   0.761468246235012   0.110954231522017   1.0000000
N2   N   0.381074651202496   0.904149424698109   0.110982309778835   1.0000000
N2   N   0.380519804117237   0.045720723822555   0.111129911963936   1.0000000
N2   N   0.379062907098893   0.186708029111235   0.111069443980929   1.0000000
N2   N   0.371928664769322   0.324647357833698   0.110965425648339   1.0000000
N2   N   0.357051641158362   0.462123008253642   0.111123462017317   1.0000000
N2   N   0.381768449122038   0.618232952795961   0.111054426326133   1.0000000
N2   N   0.381364164174755   0.762015613118287   0.110909727520937   1.0000000
N2   N   0.524712707941345   0.907562056828548   0.110880454111418   1.0000000
N2   N   0.524053281945365   0.047270067067060   0.111002696098800   1.0000000
N2   N   0.523927017515366   0.187098075188456   0.111039163497793   1.0000000
N2   N   0.523887781744590   0.325479720102692   0.111062942545145   1.0000000
N2   N   0.537878393663360   0.642949760759636   0.111123462017317   1.0000000
N2   N   0.526672355754091   0.770290727995964   0.110862101987192   1.0000000
N2   N   0.669040589988892   0.908936134594451   0.110882533884687   1.0000000
N2   N   0.667266885776123   0.049019918032515   0.110999862987535   1.0000000
N2   N   0.666970596113051   0.190251913681358   0.111018697546267   1.0000000
N2   N   0.667731399195333   0.332270002721663   0.110982283417544   1.0000000
N2   N   0.674521681814304   0.476113620172391   0.111062942545145   1.0000000
N2   N   0.675354044083297   0.628072737148679   0.110965425648339   1.0000000
N2   N   0.674493979396754   0.771485635082684   0.110849007512356   1.0000000
N2   N   0.812925398800131   0.909060031028245   0.110971556120545   1.0000000
N2   N   0.810076871272202   0.049299622364066   0.111041462438195   1.0000000
N2   N   0.809207406286753   0.190793995631245   0.111081559661645   1.0000000
N2   N   0.809749488236646   0.333030805803949   0.111018697546267   1.0000000
N2   N   0.812903326729542   0.476074384401630   0.111039163497793   1.0000000
N2   N   0.813293372806762   0.620938494819098   0.111069443980929   1.0000000
N2   N   0.814542315281922   0.766632389810810   0.111003632176932   1.0000000
Al2   Al   0.462624804274049   0.537377216922966   0.110935395596461   1.0000000
S2   S   0.527924811779072   0.472076590137915   0.111199837845805   1.0000000


