data_1
_audit_creation_method   'vasp2cif'
_cell_length_a    14.93631414619966
_cell_length_b    14.936314146199727
_cell_length_c    13.341276283792837
_cell_angle_alpha    90.0
_cell_angle_beta    90.0
_cell_angle_gamma    119.99999999999984

_symmetry_space_group_name_H-M    'P 1'
loop_
_atom_site_label
_atom_site_type_symbol
_atom_site_fract_x
_atom_site_fract_y
_atom_site_fract_z
_atom_site_occupancy
In2   In   0.555555555555557   0.444444444444443   0.375000000000000   1.0000000
N2   N   0.111085862550934   0.055558018145452   0.125047325145105   1.0000000
N2   N   0.611210874067256   0.555755081467859   0.119639695668865   1.0000000
N2   N   0.444466625153960   0.055584977160705   0.125167464336676   1.0000000
N2   N   0.944415022839351   0.555533374846004   0.125167464336676   1.0000000
N2   N   0.777797276989934   0.055565305161631   0.124731809207564   1.0000000
N2   N   0.111097000141365   0.722215166737368   0.624985273001576   1.0000000
N2   N   0.444466625153960   0.722214981326563   0.624832535663342   1.0000000
N2   N   0.277723218776203   0.222207258793421   0.625885265789229   1.0000000
N2   N   0.777792741206599   0.722276781223795   0.625885265789229   1.0000000
N2   N   0.611150706683899   0.222207258793421   0.625885265789229   1.0000000
N2   N   0.944434694838363   0.222202723010067   0.625268190792488   1.0000000
N2   N   0.277784833262636   0.722215166737368   0.125014726998421   1.0000000
N2   N   0.111056713397442   0.222195023365389   0.124782914126465   1.0000000
N2   N   0.444463815989819   0.222260965312956   0.123606586383231   1.0000000
N2   N   0.611150706683899   0.722276781223796   0.124114734210814   1.0000000
N2   N   0.944415022839312   0.722214981326563   0.125167464336676   1.0000000
N2   N   0.777804976634609   0.222195023365389   0.124782914126465   1.0000000
N2   N   0.111101645125908   0.888898354874059   0.624889759153057   1.0000000
N2   N   0.444463376414859   0.888898354874059   0.624889759153057   1.0000000
N2   N   0.277723218776203   0.388849293316097   0.625885265789229   1.0000000
N2   N   0.611210874067256   0.388789125932735   0.630360304331143   1.0000000
N2   N   0.777804976634609   0.888943286602517   0.625217085873548   1.0000000
N2   N   0.944441981854505   0.388861177738799   0.624952674854942   1.0000000
N2   N   0.111085862550934   0.388861177738799   0.125047325145105   1.0000000
N2   N   0.277784833262636   0.888902999858601   0.125014726998421   1.0000000
N2   N   0.611138822261142   0.888914137449083   0.125047325145105   1.0000000
N2   N   0.444244918532144   0.388789125932735   0.119639695668865   1.0000000
N2   N   0.944441981854505   0.888914137449083   0.125047325145105   1.0000000
N2   N   0.777792741206599   0.388849293316097   0.124114734210814   1.0000000
N2   N   0.277785018673448   0.555533374846004   0.624832535663342   1.0000000
N2   N   0.111085862550934   0.055558018145452   0.624952674854942   1.0000000
N2   N   0.611210874067256   0.555755081467859   0.630360304331143   1.0000000
N2   N   0.444466625153960   0.055584977160706   0.624832535663342   1.0000000
N2   N   0.944415022839312   0.555533374846004   0.624832535663342   1.0000000
N2   N   0.111101645125908   0.555536623585147   0.125110240846977   1.0000000
N2   N   0.777797276989935   0.055565305161631   0.625268190792488   1.0000000
N2   N   0.277785018673448   0.055584977160705   0.125167464336676   1.0000000
N2   N   0.444463815989819   0.555536184010211   0.123606586383231   1.0000000
N2   N   0.777739034687004   0.555536184010210   0.123606586383231   1.0000000
N2   N   0.611138822261142   0.055558018145452   0.125047325145105   1.0000000
N2   N   0.444463815989819   0.555536184010211   0.626393413616751   1.0000000
N2   N   0.944434694838363   0.055565305161631   0.124731809207564   1.0000000
N2   N   0.277784833262636   0.722215166737368   0.624985273001576   1.0000000
N2   N   0.111056713397441   0.222195023365389   0.625217085873548   1.0000000
N2   N   0.444463815989819   0.222260965312956   0.626393413616751   1.0000000
N2   N   0.611150706683898   0.722276781223796   0.625885265789229   1.0000000
N2   N   0.944415022839350   0.722214981326563   0.624832535663329   1.0000000
N2   N   0.777804976634615   0.222195023365392   0.625217085873548   1.0000000
N2   N   0.111097000141365   0.722215166737368   0.125014726998421   1.0000000
N2   N   0.444466625153960   0.722214981326550   0.125167464336676   1.0000000
N2   N   0.277723218776203   0.222207258793421   0.124114734210814   1.0000000
N2   N   0.777792741206599   0.722276781223796   0.124114734210817   1.0000000
N2   N   0.611150706683898   0.222207258793421   0.124114734210814   1.0000000
N2   N   0.944434694838363   0.222202723010067   0.124731809207564   1.0000000
N2   N   0.111085862550934   0.388861177738804   0.624952674854942   1.0000000
N2   N   0.277784833262636   0.888902999858601   0.624985273001576   1.0000000
N2   N   0.611138822261142   0.888914137449097   0.624952674854942   1.0000000
N2   N   0.444244918532144   0.388789125932735   0.630360304331142   1.0000000
N2   N   0.944441981854504   0.888914137449097   0.624952674854942   1.0000000
N2   N   0.111101645125908   0.888898354874059   0.125110240846977   1.0000000
N2   N   0.777792741206599   0.388849293316097   0.625885265789229   1.0000000
N2   N   0.444463376414859   0.888898354874059   0.125110240846978   1.0000000
N2   N   0.277723218776203   0.388849293316097   0.124114734210814   1.0000000
N2   N   0.277785018673448   0.555533374846004   0.125167464336676   1.0000000
N2   N   0.611210874067255   0.388789125932735   0.119639695668865   1.0000000
N2   N   0.777804976634609   0.888943286602517   0.124782914126465   1.0000000
N2   N   0.944441981854505   0.388861177738799   0.125047325145105   1.0000000
N2   N   0.111101645125908   0.555536623585147   0.624889759153057   1.0000000
N2   N   0.277785018673448   0.055584977160706   0.624832535663342   1.0000000
N2   N   0.777739034686997   0.555536184010211   0.626393413616751   1.0000000
N2   N   0.611138822261142   0.055558018145452   0.624952674854942   1.0000000
N2   N   0.944434694838363   0.055565305161631   0.625268190792488   1.0000000
N2   N   0.053795938881266   0.109925829073226   0.375000000000000   1.0000000
N2   N   0.556286667333787   0.625553740596836   0.375000000000000   1.0000000
N2   N   0.387212609932417   0.107758553198160   0.375000000000000   1.0000000
N2   N   0.892241446801835   0.612787390067602   0.375000000000000   1.0000000
N2   N   0.722796556858601   0.109925829073226   0.375000000000000   1.0000000
N2   N   0.055565916226039   0.777781778521357   0.875000000000000   1.0000000
N2   N   0.388882528961981   0.777781778521357   0.875000000000000   1.0000000
N2   N   0.222230807295103   0.277782070314226   0.875000000000000   1.0000000
N2   N   0.722217929685787   0.777769192704885   0.875000000000000   1.0000000
N2   N   0.555535895909724   0.277752092283986   0.875000000000000   1.0000000
N2   N   0.888890099532157   0.277784817859933   0.875000000000000   1.0000000
N2   N   0.222222222222221   0.777777777777779   0.375000000000000   1.0000000
N2   N   0.053795938881267   0.277203443141354   0.375000000000000   1.0000000
N2   N   0.374446259403187   0.264066260070313   0.375000000000000   1.0000000
N2   N   0.554958541422405   0.783591111242451   0.375000000000000   1.0000000
N2   N   0.895299236486751   0.783591111242451   0.375000000000000   1.0000000
N2   N   0.725091765291689   0.274908234708357   0.375000000000000   1.0000000
N2   N   0.055559437153211   0.944440562846827   0.875000000000000   1.0000000
N2   N   0.388882528961981   0.944434083773933   0.875000000000000   1.0000000
N2   N   0.222221690810753   0.444455584518629   0.875000000000000   1.0000000
N2   N   0.555555555555557   0.444444444444443   0.875000000000000   1.0000000
N2   N   0.722215182140049   0.944438615005525   0.875000000000000   1.0000000
N2   N   0.888900560374530   0.444455584518629   0.875000000000000   1.0000000
N2   N   0.055887807919325   0.445108949171970   0.375000000000000   1.0000000
N2   N   0.221706125488454   0.942958735262174   0.375000000000000   1.0000000
N2   N   0.554891050827987   0.944112192080683   0.375000000000000   1.0000000
N2   N   0.374446259403175   0.443713332666209   0.375000000000000   1.0000000
N2   N   0.890074170926784   0.946204061118721   0.375000000000000   1.0000000
N2   N   0.735933739929641   0.443713332666209   0.375000000000000   1.0000000
N2   N   0.222218221478651   0.611117471037999   0.875000000000000   1.0000000
N2   N   0.055561384994455   0.111109900467846   0.875000000000000   1.0000000
N2   N   0.555535895909708   0.611117136959098   0.875000000000000   1.0000000
N2   N   0.388875474393050   0.111084282119440   0.875000000000000   1.0000000
N2   N   0.888915717880557   0.611124525606952   0.875000000000000   1.0000000
N2   N   0.057041264737818   0.612080723559591   0.375000000000000   1.0000000
N2   N   0.722215182140049   0.111109900467846   0.875000000000000   1.0000000
N2   N   0.216408888757572   0.104700763513290   0.375000000000000   1.0000000
N2   N   0.387212609932428   0.612787390067627   0.375000000000000   1.0000000
N2   N   0.735933739929641   0.625553740596853   0.375000000000000   1.0000000
N2   N   0.554958541422406   0.104700763513288   0.375000000000000   1.0000000
N2   N   0.388875474393050   0.611124525606952   0.875000000000000   1.0000000
N2   N   0.888888888888886   0.111111111111114   0.375000000000000   1.0000000
N2   N   0.222222222222221   0.777777777777779   0.875000000000000   1.0000000
N2   N   0.055561384994455   0.277784817859941   0.875000000000000   1.0000000
N2   N   0.388882863040914   0.277752092283986   0.875000000000000   1.0000000
N2   N   0.555544415481405   0.777778309189258   0.875000000000000   1.0000000
N2   N   0.888900560374530   0.777778309189258   0.875000000000000   1.0000000
N2   N   0.722217929685788   0.277782070314232   0.875000000000000   1.0000000
N2   N   0.057041264737818   0.778293874511606   0.375000000000000   1.0000000
N2   N   0.387919276440379   0.778293874511606   0.375000000000000   1.0000000
N2   N   0.216483136083342   0.274908234708357   0.375000000000000   1.0000000
N2   N   0.725091765291698   0.783516863916623   0.375000000000000   1.0000000
N2   N   0.556286667333785   0.264066260070313   0.375000000000000   1.0000000
N2   N   0.890074170926802   0.277203443141353   0.375000000000000   1.0000000
N2   N   0.055559437153211   0.444452207639753   0.875000000000000   1.0000000
N2   N   0.222218221478651   0.944434083773933   0.875000000000000   1.0000000
N2   N   0.555547792360252   0.944440562846827   0.875000000000000   1.0000000
N2   N   0.388882863040906   0.444464104090293   0.875000000000000   1.0000000
N2   N   0.888890099532157   0.944438615005525   0.875000000000000   1.0000000
N2   N   0.055887807919325   0.944112192080695   0.375000000000000   1.0000000
N2   N   0.722247907715988   0.444464104090293   0.875000000000000   1.0000000
N2   N   0.387919276440379   0.942958735262137   0.375000000000000   1.0000000
N2   N   0.216408888757572   0.445041458577613   0.375000000000000   1.0000000
N2   N   0.221706125488454   0.612080723559591   0.375000000000000   1.0000000
N2   N   0.722796556858601   0.946204061118721   0.375000000000000   1.0000000
N2   N   0.895299236486751   0.445041458577613   0.375000000000000   1.0000000
N2   N   0.055565916226039   0.611117471037999   0.875000000000000   1.0000000
N2   N   0.222221690810754   0.111099439625451   0.875000000000000   1.0000000
N2   N   0.722247907716004   0.611117136959098   0.875000000000000   1.0000000
N2   N   0.555544415481405   0.111099439625451   0.875000000000000   1.0000000
N2   N   0.888888888888886   0.111111111111114   0.875000000000000   1.0000000
B2   B   0.107985830662209   0.053071522947393   0.375000000000000   1.0000000
B2   B   0.628307300885501   0.589947935104401   0.375000000000000   1.0000000
B2   B   0.443820426480210   0.053254707047194   0.375000000000000   1.0000000
B2   B   0.946745292952791   0.556179573519840   0.375000000000000   1.0000000
B2   B   0.778486329743158   0.055909831538224   0.375000000000000   1.0000000
B2   B   0.111099354219958   0.722216343776647   0.875000000000000   1.0000000
B2   B   0.444445167324046   0.722189196837285   0.875000000000000   1.0000000
B2   B   0.277868997041380   0.222277568175917   0.875000000000000   1.0000000
B2   B   0.777722431824103   0.722131002958570   0.875000000000000   1.0000000
B2   B   0.611075237801166   0.222277568175918   0.875000000000000   1.0000000
B2   B   0.944453275162322   0.222239883657969   0.875000000000000   1.0000000
B2   B   0.277398583674747   0.722601416325229   0.375000000000000   1.0000000
B2   B   0.107651922631575   0.220492627982445   0.375000000000000   1.0000000
B2   B   0.442750974337998   0.218835282009364   0.375000000000000   1.0000000
B2   B   0.612674747179944   0.732578613933134   0.375000000000000   1.0000000
B2   B   0.946745292952791   0.723899052766359   0.375000000000000   1.0000000
B2   B   0.779507372017504   0.220492627982445   0.375000000000000   1.0000000
B2   B   0.111113287439927   0.888886712560048   0.875000000000000   1.0000000
B2   B   0.444440091786809   0.888886712560048   0.875000000000000   1.0000000
B2   B   0.277868997041380   0.388924762198813   0.875000000000000   1.0000000
B2   B   0.611073356707501   0.388926643292484   0.875000000000000   1.0000000
B2   B   0.777745737498352   0.888824808330037   0.875000000000000   1.0000000
B2   B   0.944428240788135   0.388909524073001   0.875000000000000   1.0000000
B2   B   0.107985830662211   0.388247641048146   0.375000000000000   1.0000000
B2   B   0.277398583674747   0.888130500682822   0.375000000000000   1.0000000
B2   B   0.611752358951864   0.892014169337833   0.375000000000000   1.0000000
B2   B   0.410052064895617   0.371692699114496   0.375000000000000   1.0000000
B2   B   0.946928477052620   0.892014169337833   0.375000000000000   1.0000000
B2   B   0.786570533419878   0.387325252820038   0.375000000000000   1.0000000
B2   B   0.277810803162677   0.555554832675955   0.875000000000000   1.0000000
B2   B   0.111147949951550   0.055571759211890   0.875000000000000   1.0000000
B2   B   0.611073356707500   0.555480046748360   0.875000000000000   1.0000000
B2   B   0.444445167324046   0.055589303820086   0.875000000000000   1.0000000
B2   B   0.944410696179918   0.555554832675955   0.875000000000000   1.0000000
B2   B   0.111347920933138   0.556029175199559   0.375000000000000   1.0000000
B2   B   0.777760116342063   0.055546724837686   0.875000000000000   1.0000000
B2   B   0.276100947233638   0.053254707047194   0.375000000000000   1.0000000
B2   B   0.442750974337998   0.557249025661999   0.375000000000000   1.0000000
B2   B   0.781164717990668   0.557249025661999   0.375000000000000   1.0000000
B2   B   0.611752358951864   0.053071522947393   0.375000000000000   1.0000000
B2   B   0.444473914694309   0.555526085305715   0.875000000000000   1.0000000
B2   B   0.944090168461793   0.055909831538224   0.375000000000000   1.0000000
B2   B   0.277783656223374   0.722216343776647   0.875000000000000   1.0000000
B2   B   0.111175191669949   0.222254262501635   0.875000000000000   1.0000000
B2   B   0.444473914694309   0.222281162721915   0.875000000000000   1.0000000
B2   B   0.611075237801166   0.722131002958570   0.875000000000000   1.0000000
B2   B   0.944410696179918   0.722189196837285   0.875000000000000   1.0000000
B2   B   0.777745737498352   0.222254262501635   0.875000000000000   1.0000000
B2   B   0.111869499317130   0.722601416325229   0.375000000000000   1.0000000
B2   B   0.443820426480210   0.723899052766359   0.375000000000000   1.0000000
B2   B   0.267421386066888   0.213429466580156   0.375000000000000   1.0000000
B2   B   0.786570533419878   0.732578613933134   0.375000000000000   1.0000000
B2   B   0.612674747179957   0.213429466580164   0.375000000000000   1.0000000
B2   B   0.944090168461793   0.221513670256874   0.375000000000000   1.0000000
B2   B   0.111147949951550   0.388909524073001   0.875000000000000   1.0000000
B2   B   0.277783656223374   0.888900645780076   0.875000000000000   1.0000000
B2   B   0.611090475927040   0.888852050048408   0.875000000000000   1.0000000
B2   B   0.444519953251681   0.388926643292484   0.875000000000000   1.0000000
B2   B   0.944428240788135   0.888852050048408   0.875000000000000   1.0000000
B2   B   0.111347920933141   0.888652079066826   0.375000000000000   1.0000000
B2   B   0.777722431824102   0.388924762198813   0.875000000000000   1.0000000
B2   B   0.443970824800409   0.888652079066827   0.375000000000000   1.0000000
B2   B   0.267421386066888   0.387325252820041   0.375000000000000   1.0000000
B2   B   0.276100947233638   0.556179573519840   0.375000000000000   1.0000000
B2   B   0.628307300885523   0.371692699114464   0.375000000000000   1.0000000
B2   B   0.779507372017504   0.892348077368391   0.375000000000000   1.0000000
B2   B   0.946928477052620   0.388247641048146   0.375000000000000   1.0000000
B2   B   0.111113287439927   0.555559908213170   0.875000000000000   1.0000000
B2   B   0.277810803162677   0.055589303820086   0.875000000000000   1.0000000
B2   B   0.777718837278046   0.555526085305715   0.875000000000000   1.0000000
B2   B   0.611090475927040   0.055571759211890   0.875000000000000   1.0000000
B2   B   0.944453275162322   0.055546724837686   0.875000000000000   1.0000000
B2   B   0.055564872930513   0.111143297579962   0.125013188650563   1.0000000
B2   B   0.555674048148624   0.610936277908990   0.122978057210016   1.0000000
B2   B   0.389026076521053   0.111385486375441   0.125050805844172   1.0000000
B2   B   0.888614513624551   0.610973923478945   0.125050805844172   1.0000000
B2   B   0.722245091316103   0.111143297579962   0.125013188650563   1.0000000
B2   B   0.055449844014940   0.777743473724708   0.624739725061185   1.0000000
B2   B   0.388960296376460   0.777743473724708   0.624739725061185   1.0000000
B2   B   0.222305370459855   0.277819351896602   0.625389489900740   1.0000000
B2   B   0.722180648103399   0.777694629540131   0.625389489900740   1.0000000
B2   B   0.555674048148611   0.278071103572914   0.627021942789999   1.0000000
B2   B   0.888856702419989   0.277754908683878   0.624986811349450   1.0000000
B2   B   0.222222222222221   0.777777777777779   0.125061595647753   1.0000000
B2   B   0.055564872930512   0.277754908683878   0.125013188650563   1.0000000
B2   B   0.389063722090937   0.278071103572914   0.122978057210016   1.0000000
B2   B   0.555631148467746   0.777697223571486   0.125081103400606   1.0000000
B2   B   0.888732741770460   0.777697223571486   0.125081103400606   1.0000000
B2   B   0.722180648103399   0.277819351896611   0.124610510099264   1.0000000
B2   B   0.055524929251474   0.944475070748518   0.624756729471723   1.0000000
B2   B   0.388960296376460   0.944550155985094   0.624739725061185   1.0000000
B2   B   0.222302776428485   0.444368851532330   0.624918896599370   1.0000000
B2   B   0.555555555555557   0.444444444444443   0.627375812818419   1.0000000
B2   B   0.722245091316109   0.944435127069449   0.624986811349450   1.0000000
B2   B   0.888732741770460   0.444368851532330   0.624918896599370   1.0000000
B2   B   0.055524929251474   0.444383191836238   0.125243270528324   1.0000000
B2   B   0.222256526275254   0.944550155985094   0.125260274938837   1.0000000
B2   B   0.555616808163734   0.944475070748518   0.125243270528324   1.0000000
B2   B   0.389063722090937   0.444325951851358   0.122978057210016   1.0000000
B2   B   0.888856702419989   0.944435127069449   0.125013188650563   1.0000000
B2   B   0.721928896427106   0.444325951851358   0.122978057210016   1.0000000
B2   B   0.222256526275254   0.611039703623552   0.624739725061185   1.0000000
B2   B   0.055564872930513   0.111143297579964   0.624986811349450   1.0000000
B2   B   0.555674048148624   0.610936277908990   0.627021942789999   1.0000000
B2   B   0.389026076521054   0.111385486375441   0.624949194155818   1.0000000
B2   B   0.888614513624551   0.610973923478945   0.624949194155817   1.0000000
B2   B   0.055449844014940   0.611039703623552   0.125260274938837   1.0000000
B2   B   0.722245091316109   0.111143297579962   0.624986811349450   1.0000000
B2   B   0.222302776428485   0.111267258229504   0.125081103400606   1.0000000
B2   B   0.389026076521053   0.610973923478945   0.125050805844172   1.0000000
B2   B   0.721928896427105   0.610936277908990   0.122978057210016   1.0000000
B2   B   0.555631148467746   0.111267258229504   0.125081103400606   1.0000000
B2   B   0.389026076521053   0.610973923478945   0.624949194155818   1.0000000
B2   B   0.888888888888886   0.111111111111114   0.124857857988233   1.0000000
B2   B   0.222222222222221   0.777777777777779   0.624938404352257   1.0000000
B2   B   0.055564872930513   0.277754908683878   0.624986811349450   1.0000000
B2   B   0.389063722090937   0.278071103572914   0.627021942789999   1.0000000
B2   B   0.555631148467746   0.777697223571486   0.624918896599370   1.0000000
B2   B   0.888732741770460   0.777697223571486   0.624918896599370   1.0000000
B2   B   0.722180648103399   0.277819351896602   0.625389489900740   1.0000000
B2   B   0.055449844014942   0.777743473724708   0.125260274938837   1.0000000
B2   B   0.388960296376460   0.777743473724708   0.125260274938837   1.0000000
B2   B   0.222305370459855   0.277819351896602   0.124610510099264   1.0000000
B2   B   0.722180648103399   0.777694629540131   0.124610510099268   1.0000000
B2   B   0.555674048148611   0.278071103572914   0.122978057210016   1.0000000
B2   B   0.888856702419989   0.277754908683878   0.125013188650563   1.0000000
B2   B   0.055524929251474   0.444383191836238   0.624756729471723   1.0000000
B2   B   0.222256526275254   0.944550155985094   0.624739725061185   1.0000000
B2   B   0.555616808163734   0.944475070748518   0.624756729471723   1.0000000
B2   B   0.389063722090937   0.444325951851358   0.627021942789999   1.0000000
B2   B   0.888856702419989   0.944435127069449   0.624986811349450   1.0000000
B2   B   0.055524929251474   0.944475070748518   0.125243270528324   1.0000000
B2   B   0.721928896427106   0.444325951851358   0.627021942789999   1.0000000
B2   B   0.388960296376460   0.944550155985094   0.125260274938837   1.0000000
B2   B   0.222302776428485   0.444368851532330   0.125081103400606   1.0000000
B2   B   0.222256526275254   0.611039703623552   0.125260274938837   1.0000000
B2   B   0.555555555555557   0.444444444444443   0.122624187181569   1.0000000
B2   B   0.722245091316109   0.944435127069449   0.125013188650563   1.0000000
B2   B   0.888732741770460   0.444368851532330   0.125081103400606   1.0000000
B2   B   0.055449844014940   0.611039703623552   0.624739725061185   1.0000000
B2   B   0.222302776428485   0.111267258229500   0.624918896599370   1.0000000
B2   B   0.721928896427106   0.610936277908990   0.627021942789999   1.0000000
B2   B   0.555631148467746   0.111267258229504   0.624918896599370   1.0000000
B2   B   0.888888888888886   0.111111111111114   0.625142142011766   1.0000000


