data_1
_audit_creation_method   'vasp2cif'
_cell_length_a    14.93631414619966
_cell_length_b    14.936314146199727
_cell_length_c    13.341276283792837
_cell_angle_alpha    90.0
_cell_angle_beta    90.0
_cell_angle_gamma    119.99999999999984

_symmetry_space_group_name_H-M    'P 1'
loop_
_atom_site_label
_atom_site_type_symbol
_atom_site_fract_x
_atom_site_fract_y
_atom_site_fract_z
_atom_site_occupancy
Ge2   Ge   0.444444444444443   0.388888888888886   0.375000000000000   1.0000000
N2   N   0.111104385045587   0.055535557332150   0.124835811697124   1.0000000
N2   N   0.611128489982387   0.555557691860652   0.126836317552415   1.0000000
N2   N   0.444431172286580   0.055535557332150   0.124835811697124   1.0000000
N2   N   0.944459776651580   0.555566132306053   0.124996385084926   1.0000000
N2   N   0.777777777777779   0.055555555555557   0.125106288260805   1.0000000
N2   N   0.111111111111114   0.722222222222221   0.624754246100751   1.0000000
N2   N   0.444431172286580   0.722228948287750   0.625164188302889   1.0000000
N2   N   0.277775641472671   0.222204843350955   0.623163682447641   1.0000000
N2   N   0.777797776001148   0.722228948287750   0.625164188302889   1.0000000
N2   N   0.611102019090064   0.222231314243251   0.624918006776606   1.0000000
N2   N   0.944452291631129   0.222231529989961   0.625182075207488   1.0000000
N2   N   0.277767201027262   0.722226977678835   0.124996385084926   1.0000000
N2   N   0.111129295153178   0.222231314243251   0.125081993223332   1.0000000
N2   N   0.444429201878280   0.222204843350955   0.126836317552415   1.0000000
N2   N   0.611102019090064   0.722204038180170   0.125081993223332   1.0000000
N2   N   0.944459776651580   0.722226977678835   0.124996385084926   1.0000000
N2   N   0.777779238358853   0.222231529989961   0.124817924792551   1.0000000
N2   N   0.111106355654493   0.888873556681748   0.625003614915047   1.0000000
N2   N   0.444433895441908   0.888883614387610   0.625232973966702   1.0000000
N2   N   0.277775641472671   0.388904131455049   0.623163682447641   1.0000000
N2   N   0.611128489982387   0.388904131455049   0.623163682447641   1.0000000
N2   N   0.777779238358853   0.888881041702199   0.625182075207488   1.0000000
N2   N   0.944449718945719   0.388899437891421   0.625232973966702   1.0000000
N2   N   0.111104385045587   0.388902161046749   0.124835811697124   1.0000000
N2   N   0.277767201027262   0.888873556681748   0.124996385084926   1.0000000
N2   N   0.611101803343399   0.888881041702199   0.124817924792551   1.0000000
N2   N   0.444444444444443   0.388888888888886   0.133435983949861   1.0000000
N2   N   0.944449718945719   0.888883614387610   0.124767026033269   1.0000000
N2   N   0.777797776001148   0.388902161046749   0.124835811697124   1.0000000
N2   N   0.277764723928499   0.555568609404848   0.624749660683146   1.0000000
N2   N   0.111104385045587   0.055535557332150   0.625164188302889   1.0000000
N2   N   0.611128489982387   0.555557691860652   0.623163682447641   1.0000000
N2   N   0.444431172286580   0.055535557332150   0.625164188302889   1.0000000
N2   N   0.944459776651580   0.555566132306053   0.625003614915047   1.0000000
N2   N   0.111106355654493   0.555566132306053   0.124996385084925   1.0000000
N2   N   0.777777777777779   0.055555555555557   0.624893711739237   1.0000000
N2   N   0.277764723928499   0.055529447857002   0.125250339316836   1.0000000
N2   N   0.444429201878280   0.555557691860652   0.126836317552415   1.0000000
N2   N   0.777803885476338   0.555568609404848   0.125250339316836   1.0000000
N2   N   0.611101803343399   0.055554094974482   0.124817924792551   1.0000000
N2   N   0.444429201878280   0.555557691860652   0.623163682447641   1.0000000
N2   N   0.944452291631129   0.055554094974482   0.124817924792551   1.0000000
N2   N   0.277767201027262   0.722226977678835   0.625003614915047   1.0000000
N2   N   0.111129295153178   0.222231314243251   0.624918006776606   1.0000000
N2   N   0.444429201878280   0.222204843350955   0.623163682447641   1.0000000
N2   N   0.611102019090064   0.722204038180170   0.624918006776606   1.0000000
N2   N   0.944459776651580   0.722226977678835   0.625003614915047   1.0000000
N2   N   0.777779238358853   0.222231529989961   0.625182075207488   1.0000000
N2   N   0.111111111111114   0.722222222222221   0.125245753899189   1.0000000
N2   N   0.444431172286580   0.722228948287750   0.124835811697124   1.0000000
N2   N   0.277775641472671   0.222204843350955   0.126836317552415   1.0000000
N2   N   0.777797776001148   0.722228948287750   0.124835811697124   1.0000000
N2   N   0.611102019090064   0.222231314243251   0.125081993223332   1.0000000
N2   N   0.944452291631129   0.222231529989961   0.124817924792551   1.0000000
N2   N   0.111104385045587   0.388902161046749   0.625164188302889   1.0000000
N2   N   0.277767201027262   0.888873556681748   0.625003614915047   1.0000000
N2   N   0.611101803343399   0.888881041702199   0.625182075207488   1.0000000
N2   N   0.444444444444443   0.388888888888886   0.616564016050142   1.0000000
N2   N   0.944449718945719   0.888883614387610   0.625232973966702   1.0000000
N2   N   0.111106355654493   0.888873556681748   0.124996385084925   1.0000000
N2   N   0.777797776001148   0.388902161046749   0.625164188302889   1.0000000
N2   N   0.444433895441908   0.888883614387610   0.124767026033269   1.0000000
N2   N   0.277775641472671   0.388904131455049   0.126836317552415   1.0000000
N2   N   0.277764723928499   0.555568609404848   0.125250339316836   1.0000000
N2   N   0.611128489982387   0.388904131455049   0.126836317552415   1.0000000
N2   N   0.777779238358853   0.888881041702199   0.124817924792551   1.0000000
N2   N   0.944449718945719   0.388899437891421   0.124767026033269   1.0000000
N2   N   0.111106355654493   0.555566132306053   0.625003614915047   1.0000000
N2   N   0.277764723928499   0.055529447857002   0.624749660683146   1.0000000
N2   N   0.777803885476338   0.555568609404848   0.624749660683146   1.0000000
N2   N   0.611101803343399   0.055554094974482   0.625182075207488   1.0000000
N2   N   0.944452291631129   0.055554094974482   0.625182075207488   1.0000000
N2   N   0.054563765146747   0.110452084165023   0.375000000000000   1.0000000
N2   N   0.556081032032066   0.612162064064078   0.375000000000000   1.0000000
N2   N   0.387919449118412   0.105696990114177   0.375000000000000   1.0000000
N2   N   0.890711976166820   0.612022654750089   0.375000000000000   1.0000000
N2   N   0.722399624405239   0.110933708928101   0.375000000000000   1.0000000
N2   N   0.055553368898740   0.777779964434581   0.875000000000000   1.0000000
N2   N   0.388895410704049   0.777778918477955   0.875000000000000   1.0000000
N2   N   0.222226798072636   0.277780065702960   0.875000000000000   1.0000000
N2   N   0.722220423307416   0.777780222319714   0.875000000000000   1.0000000
N2   N   0.555553267630340   0.277780065702960   0.875000000000000   1.0000000
N2   N   0.888887865015642   0.277775730031359   0.875000000000000   1.0000000
N2   N   0.221888583209091   0.777610958271207   0.375000000000000   1.0000000
N2   N   0.054563765146747   0.277445014315045   0.375000000000000   1.0000000
N2   N   0.379277517042493   0.258555034085016   0.375000000000000   1.0000000
N2   N   0.555888319018273   0.778769568186602   0.375000000000000   1.0000000
N2   N   0.890385730866292   0.779017989383837   0.375000000000000   1.0000000
N2   N   0.722881249168311   0.277445014315045   0.375000000000000   1.0000000
N2   N   0.055554414855359   0.944449825559388   0.875000000000000   1.0000000
N2   N   0.388895410704049   0.944449825559388   0.875000000000000   1.0000000
N2   N   0.222227908518770   0.444434508646612   0.875000000000000   1.0000000
N2   N   0.555533897168254   0.444433615250791   0.875000000000000   1.0000000
N2   N   0.722223204355234   0.944446408710505   0.875000000000000   1.0000000
N2   N   0.888883507773941   0.444437922629279   0.875000000000000   1.0000000
N2   N   0.054315343949495   0.444701074815786   0.375000000000000   1.0000000
N2   N   0.221310678583259   0.942621357166509   0.375000000000000   1.0000000
N2   N   0.555828655406432   0.944580994369915   0.375000000000000   1.0000000
N2   N   0.379277517042493   0.454055816290835   0.375000000000000   1.0000000
N2   N   0.888752338963413   0.944580994369915   0.375000000000000   1.0000000
N2   N   0.727636343219163   0.445413884214917   0.375000000000000   1.0000000
N2   N   0.222227915309332   0.611105418024047   0.875000000000000   1.0000000
N2   N   0.055553111013633   0.111112910025930   0.875000000000000   1.0000000
N2   N   0.555553267630340   0.611106535260751   0.875000000000000   1.0000000
N2   N   0.388898824686717   0.111126733205500   0.875000000000000   1.0000000
N2   N   0.888877502714687   0.611105418024047   0.875000000000000   1.0000000
N2   N   0.055722375062124   0.611444750124241   0.375000000000000   1.0000000
N2   N   0.722223204355234   0.111110128978087   0.875000000000000   1.0000000
N2   N   0.217777540995759   0.105696990114177   0.375000000000000   1.0000000
N2   N   0.387919449118412   0.615555792337583   0.375000000000000   1.0000000
N2   N   0.727636343219163   0.615555792337583   0.375000000000000   1.0000000
N2   N   0.555888319018273   0.110452084165023   0.375000000000000   1.0000000
N2   N   0.388898824686717   0.611105424814555   0.875000000000000   1.0000000
N2   N   0.888534084522888   0.110933708928101   0.375000000000000   1.0000000
N2   N   0.222226595535854   0.777779964434581   0.875000000000000   1.0000000
N2   N   0.055553111013633   0.277773534321033   0.875000000000000   1.0000000
N2   N   0.388899718082537   0.277799436165048   0.875000000000000   1.0000000
N2   N   0.555559799012301   0.777780222319714   0.875000000000000   1.0000000
N2   N   0.888883507773941   0.777778918477955   0.875000000000000   1.0000000
N2   N   0.722220423307416   0.277773534321033   0.875000000000000   1.0000000
N2   N   0.055722375062124   0.777610958271207   0.375000000000000   1.0000000
N2   N   0.388632258517543   0.779017989383837   0.375000000000000   1.0000000
N2   N   0.221171269269237   0.277252301301297   0.375000000000000   1.0000000
N2   N   0.722881249168311   0.778769568186602   0.375000000000000   1.0000000
N2   N   0.556081032032066   0.277252301301297   0.375000000000000   1.0000000
N2   N   0.888752338963413   0.277504677926915   0.375000000000000   1.0000000
N2   N   0.055554414855359   0.444437922629279   0.875000000000000   1.0000000
N2   N   0.222227915309332   0.944455830618641   0.875000000000000   1.0000000
N2   N   0.555557603301934   0.944445468317687   0.875000000000000   1.0000000
N2   N   0.388899718082537   0.444433615250791   0.875000000000000   1.0000000
N2   N   0.888887865015642   0.944445468317687   0.875000000000000   1.0000000
N2   N   0.054315343949495   0.942947602467036   0.375000000000000   1.0000000
N2   N   0.722206600127838   0.444434508646612   0.875000000000000   1.0000000
N2   N   0.388632258517543   0.942947602467036   0.375000000000000   1.0000000
N2   N   0.217777540995759   0.445413884214917   0.375000000000000   1.0000000
N2   N   0.221310678583259   0.612022654750089   0.375000000000000   1.0000000
N2   N   0.574778299248342   0.454055816290835   0.375000000000000   1.0000000
N2   N   0.722399624405239   0.944799248810440   0.375000000000000   1.0000000
N2   N   0.890385730866292   0.444701074815786   0.375000000000000   1.0000000
N2   N   0.055553368898740   0.611106737797457   0.875000000000000   1.0000000
N2   N   0.222227908518770   0.111126733205500   0.875000000000000   1.0000000
N2   N   0.722206600127838   0.611105424814555   0.875000000000000   1.0000000
N2   N   0.555559799012301   0.111112910025930   0.875000000000000   1.0000000
N2   N   0.888886924622824   0.111110128978087   0.875000000000000   1.0000000
B2   B   0.107698381861722   0.052548684495441   0.375000000000000   1.0000000
B2   B   0.619185869356928   0.563539516948322   0.375000000000000   1.0000000
B2   B   0.444850302633714   0.052548684495441   0.375000000000000   1.0000000
B2   B   0.945365306667515   0.555785288683855   0.375000000000000   1.0000000
B2   B   0.777777777777779   0.055555555555557   0.375000000000000   1.0000000
B2   B   0.111111111111114   0.722222222222221   0.875000000000000   1.0000000
B2   B   0.444461853067862   0.722267212669688   0.875000000000000   1.0000000
B2   B   0.277719700696360   0.222179339536162   0.875000000000000   1.0000000
B2   B   0.777805359601805   0.722267212669688   0.875000000000000   1.0000000
B2   B   0.611145145073058   0.222188188260292   0.875000000000000   1.0000000
B2   B   0.944412167993950   0.222201499149000   0.875000000000000   1.0000000
B2   B   0.277548044649493   0.722913351317001   0.375000000000000   1.0000000
B2   B   0.109204969512327   0.221269151422827   0.375000000000000   1.0000000
B2   B   0.444353647591344   0.214147463976346   0.375000000000000   1.0000000
B2   B   0.612064181910486   0.724128363821029   0.375000000000000   1.0000000
B2   B   0.945365306667515   0.722913351317001   0.375000000000000   1.0000000
B2   B   0.778015347729731   0.221654772626229   0.375000000000000   1.0000000
B2   B   0.111098506598083   0.888877407910519   0.875000000000000   1.0000000
B2   B   0.444458917945541   0.888896125639489   0.875000000000000   1.0000000
B2   B   0.277719700696360   0.388873694493503   0.875000000000000   1.0000000
B2   B   0.611153993797223   0.388873694493503   0.875000000000000   1.0000000
B2   B   0.777789331155036   0.888921165339378   0.875000000000000   1.0000000
B2   B   0.944437207693840   0.388874415387788   0.875000000000000   1.0000000
B2   B   0.107698381861722   0.388483030699615   0.375000000000000   1.0000000
B2   B   0.277548044649493   0.887968026665814   0.375000000000000   1.0000000
B2   B   0.611678560707109   0.889693908436856   0.375000000000000   1.0000000
B2   B   0.944230213581576   0.889103119751753   0.375000000000000   1.0000000
B2   B   0.780784648837891   0.388483030699615   0.375000000000000   1.0000000
B2   B   0.277761383348107   0.555571949985222   0.875000000000000   1.0000000
B2   B   0.111066120663657   0.055527973731519   0.875000000000000   1.0000000
B2   B   0.611153993797223   0.555613632636974   0.875000000000000   1.0000000
B2   B   0.444461853067862   0.055527973731519   0.875000000000000   1.0000000
B2   B   0.944455925422809   0.555554432020879   0.875000000000000   1.0000000
B2   B   0.110419982016318   0.555785288683855   0.375000000000000   1.0000000
B2   B   0.777777777777779   0.055555555555557   0.875000000000000   1.0000000
B2   B   0.276150663354018   0.052301326708005   0.375000000000000   1.0000000
B2   B   0.444353647591344   0.563539516948322   0.375000000000000   1.0000000
B2   B   0.781032006625300   0.557182669979338   0.375000000000000   1.0000000
B2   B   0.611678560707109   0.055317985603609   0.375000000000000   1.0000000
B2   B   0.444459638839825   0.555613632636974   0.875000000000000   1.0000000
B2   B   0.943639424896473   0.055317985603609   0.375000000000000   1.0000000
B2   B   0.277778901312460   0.722234826735257   0.875000000000000   1.0000000
B2   B   0.111043043187264   0.222188188260292   0.875000000000000   1.0000000
B2   B   0.444459638839825   0.222179339536162   0.875000000000000   1.0000000
B2   B   0.611145145073058   0.722290290146052   0.875000000000000   1.0000000
B2   B   0.944455925422809   0.722234826735257   0.875000000000000   1.0000000
B2   B   0.777789331155036   0.222201499149000   0.875000000000000   1.0000000
B2   B   0.111111111111114   0.722222222222221   0.375000000000000   1.0000000
B2   B   0.444850302633714   0.725634951471597   0.375000000000000   1.0000000
B2   B   0.269793816384977   0.214147463976346   0.375000000000000   1.0000000
B2   B   0.780784648837891   0.725634951471597   0.375000000000000   1.0000000
B2   B   0.612064181910486   0.221269151422827   0.375000000000000   1.0000000
B2   B   0.943639424896473   0.221654772626229   0.375000000000000   1.0000000
B2   B   0.111066120663657   0.388871480265467   0.875000000000000   1.0000000
B2   B   0.277778901312460   0.888877407910519   0.875000000000000   1.0000000
B2   B   0.611131834184339   0.888921165339378   0.875000000000000   1.0000000
B2   B   0.444444444444443   0.388888888888886   0.875000000000000   1.0000000
B2   B   0.944437207693840   0.888896125639489   0.875000000000000   1.0000000
B2   B   0.110419982016318   0.887968026665814   0.375000000000000   1.0000000
B2   B   0.777805359601805   0.388871480265467   0.875000000000000   1.0000000
B2   B   0.444872906170205   0.889103119751753   0.375000000000000   1.0000000
B2   B   0.269793816384977   0.388979685741985   0.375000000000000   1.0000000
B2   B   0.276150663354018   0.557182669979338   0.375000000000000   1.0000000
B2   B   0.619185869356928   0.388979685741985   0.375000000000000   1.0000000
B2   B   0.778015347729731   0.889693908436856   0.375000000000000   1.0000000
B2   B   0.944230213581576   0.388460427163124   0.375000000000000   1.0000000
B2   B   0.111098506598083   0.555554432020879   0.875000000000000   1.0000000
B2   B   0.277761383348107   0.055522766696237   0.875000000000000   1.0000000
B2   B   0.777810566637123   0.555571949985222   0.875000000000000   1.0000000
B2   B   0.611131834184339   0.055544002178300   0.875000000000000   1.0000000
B2   B   0.944412167993950   0.055544002178300   0.875000000000000   1.0000000
B2   B   0.055463007709338   0.111023730371219   0.124651211631483   1.0000000
B2   B   0.555658235025760   0.611316470051404   0.125866505140308   1.0000000
B2   B   0.388793785859192   0.110853917333448   0.125170346818000   1.0000000
B2   B   0.889035984831852   0.611184659082626   0.124821080482985   1.0000000
B2   B   0.722234517857418   0.111098815475917   0.124792382325656   1.0000000
B2   B   0.055574449725490   0.777758883607840   0.625069180430690   1.0000000
B2   B   0.388842395693878   0.777821836823191   0.625371218826515   1.0000000
B2   B   0.222016863281898   0.277675098307634   0.624133494859632   1.0000000
B2   B   0.722309602962072   0.777870325624009   0.625348788368574   1.0000000
B2   B   0.555658235025760   0.277675098307634   0.624133494859632   1.0000000
B2   B   0.888893557498047   0.277787114996128   0.625370184632684   1.0000000
B2   B   0.222184433882364   0.777758883607840   0.124930819569328   1.0000000
B2   B   0.055463007709338   0.277772610671433   0.124651211631483   1.0000000
B2   B   0.388651724739483   0.277303449478964   0.128139075014613   1.0000000
B2   B   0.555560722661878   0.777870325624009   0.124651211631483   1.0000000
B2   B   0.888979441129263   0.777821836823191   0.124628781173473   1.0000000
B2   B   0.722309602962072   0.277772610671433   0.124651211631483   1.0000000
B2   B   0.055511496510184   0.944353892204065   0.625371218826515   1.0000000
B2   B   0.388842395693878   0.944353892204065   0.625371218826515   1.0000000
B2   B   0.222060131474242   0.444539547474137   0.624829653182005   1.0000000
B2   B   0.556029883854363   0.444681608593846   0.621860924985457   1.0000000
B2   B   0.722234517857418   0.944469035714830   0.625207617674375   1.0000000
B2   B   0.888979441129263   0.444490937639451   0.625371218826515   1.0000000
B2   B   0.055511496510184   0.444490937639451   0.124628781173473   1.0000000
B2   B   0.222148674250745   0.944297348501476   0.124821080482985   1.0000000
B2   B   0.555546218337219   0.944439775835281   0.124629815367303   1.0000000
B2   B   0.388651724739483   0.444681608593846   0.128139075014613   1.0000000
B2   B   0.888893557498047   0.944439775835281   0.124629815367304   1.0000000
B2   B   0.722479415999885   0.444539547474137   0.125170346818000   1.0000000
B2   B   0.222148674250745   0.611184659082626   0.625178919516997   1.0000000
B2   B   0.055463007709338   0.111023730371219   0.625348788368574   1.0000000
B2   B   0.555658235025760   0.611316470051404   0.624133494859632   1.0000000
B2   B   0.388793785859192   0.110853917333448   0.624829653182005   1.0000000
B2   B   0.889035984831852   0.611184659082626   0.625178919516997   1.0000000
B2   B   0.055574449725490   0.611148899450968   0.124930819569328   1.0000000
B2   B   0.722234517857418   0.111098815475917   0.625207617674375   1.0000000
B2   B   0.222060131474242   0.110853917333448   0.125170346818000   1.0000000
B2   B   0.388793785859192   0.611273201859107   0.125170346818000   1.0000000
B2   B   0.722479415999885   0.611273201859107   0.125170346818000   1.0000000
B2   B   0.555560722661878   0.111023730371219   0.124651211631483   1.0000000
B2   B   0.388793785859192   0.611273201859107   0.624829653182005   1.0000000
B2   B   0.888864297618499   0.111098815475917   0.124792382325656   1.0000000
B2   B   0.222184433882364   0.777758883607840   0.625069180430690   1.0000000
B2   B   0.055463007709338   0.277772610671433   0.625348788368574   1.0000000
B2   B   0.388651724739483   0.277303449478964   0.621860924985457   1.0000000
B2   B   0.555560722661878   0.777870325624009   0.625348788368574   1.0000000
B2   B   0.888979441129263   0.777821836823191   0.625371218826515   1.0000000
B2   B   0.722309602962072   0.277772610671433   0.625348788368574   1.0000000
B2   B   0.055574449725490   0.777758883607840   0.124930819569328   1.0000000
B2   B   0.388842395693878   0.777821836823191   0.124628781173473   1.0000000
B2   B   0.222016863281898   0.277675098307634   0.125866505140308   1.0000000
B2   B   0.722309602962072   0.777870325624009   0.124651211631483   1.0000000
B2   B   0.555658235025760   0.277675098307634   0.125866505140308   1.0000000
B2   B   0.888893557498047   0.277787114996128   0.124629815367304   1.0000000
B2   B   0.055511496510184   0.444490937639451   0.625371218826515   1.0000000
B2   B   0.222148674250745   0.944297348501476   0.625178919516997   1.0000000
B2   B   0.555546218337219   0.944439775835281   0.625370184632684   1.0000000
B2   B   0.388651724739483   0.444681608593846   0.621860924985457   1.0000000
B2   B   0.888893557498047   0.944439775835281   0.625370184632684   1.0000000
B2   B   0.055511496510184   0.944353892204065   0.124628781173473   1.0000000
B2   B   0.722479415999885   0.444539547474137   0.624829653182005   1.0000000
B2   B   0.388842395693878   0.944353892204065   0.124628781173473   1.0000000
B2   B   0.222060131474242   0.444539547474137   0.125170346818000   1.0000000
B2   B   0.222148674250745   0.611184659082626   0.124821080482985   1.0000000
B2   B   0.556029883854363   0.444681608593846   0.128139075014613   1.0000000
B2   B   0.722234517857418   0.944469035714830   0.124792382325656   1.0000000
B2   B   0.888979441129263   0.444490937639451   0.124628781173473   1.0000000
B2   B   0.055574449725490   0.611148899450968   0.625069180430690   1.0000000
B2   B   0.222060131474242   0.110853917333448   0.624829653182005   1.0000000
B2   B   0.722479415999885   0.611273201859107   0.624829653182005   1.0000000
B2   B   0.555560722661878   0.111023730371219   0.625348788368574   1.0000000
B2   B   0.888864297618499   0.111098815475917   0.625207617674375   1.0000000


