data_1
_audit_creation_method   'vasp2cif'
_cell_length_a    14.93631414619966
_cell_length_b    14.936314146199727
_cell_length_c    13.341276283792837
_cell_angle_alpha    90.0
_cell_angle_beta    90.0
_cell_angle_gamma    119.99999999999984

_symmetry_space_group_name_H-M    'P 1'
loop_
_atom_site_label
_atom_site_type_symbol
_atom_site_fract_x
_atom_site_fract_y
_atom_site_fract_z
_atom_site_occupancy
Al2   Al   0.439877588931925   0.386605461132558   0.375000000000000   1.0000000
Al2   Al   0.598312936530823   0.465823134932075   0.375000000000000   1.0000000
N2   N   0.111044997313687   0.055518099793966   0.125177207868903   1.0000000
N2   N   0.611217256164224   0.555852101067866   0.121192051501563   1.0000000
N2   N   0.444444135654482   0.055547040535750   0.125159808377519   1.0000000
N2   N   0.944368327075723   0.555502639118421   0.125341545004149   1.0000000
N2   N   0.777784420960259   0.055558877146801   0.125314289707681   1.0000000
N2   N   0.111036315655400   0.722184824494251   0.624663733200941   1.0000000
N2   N   0.444444135654482   0.722230428452037   0.624840191622388   1.0000000
N2   N   0.277623276199136   0.222126039890829   0.625884054756291   1.0000000
N2   N   0.777777314896696   0.722312631984192   0.625700312260422   1.0000000
N2   N   0.611150592644764   0.222163572981430   0.625749294951930   1.0000000
N2   N   0.944428807351491   0.222199280624401   0.624697001869182   1.0000000
N2   N   0.277757346446217   0.722213270731534   0.125326239350571   1.0000000
N2   N   0.111016347171669   0.222174840252504   0.124939603154500   1.0000000
N2   N   0.444431016006239   0.222198279127835   0.123942068206813   1.0000000
N2   N   0.611150592644764   0.722320352996636   0.124250705048113   1.0000000
N2   N   0.944368327075723   0.722199021290766   0.125341545004149   1.0000000
N2   N   0.777806035119888   0.222168773535520   0.125110396557511   1.0000000
N2   N   0.111066228232462   0.888867197300928   0.624711640523197   1.0000000
N2   N   0.444447507517743   0.888890420425562   0.624694481807664   1.0000000
N2   N   0.277623276199137   0.388830569641674   0.625884054756291   1.0000000
N2   N   0.611217256164224   0.388698488429810   0.628807948498414   1.0000000
N2   N   0.777806035119888   0.888970594917832   0.624889603442502   1.0000000
N2   N   0.944427515055026   0.388837877087774   0.624674066326815   1.0000000
N2   N   0.111044997313686   0.388860230853037   0.125177207868903   1.0000000
N2   N   0.277757346446217   0.888877409047940   0.125326239350571   1.0000000
N2   N   0.611135557151213   0.888930420684153   0.125283515515806   1.0000000
N2   N   0.443932389750981   0.388632861542100   0.121873501653506   1.0000000
N2   N   0.944427515055026   0.888922971300637   0.125325933673188   1.0000000
N2   N   0.777777314896696   0.388798016245995   0.124299687739588   1.0000000
N2   N   0.277758823071421   0.555551590008546   0.624891038897072   1.0000000
N2   N   0.111044997313686   0.055518099793966   0.624822792130990   1.0000000
N2   N   0.611217256164224   0.555852101067859   0.628807948498436   1.0000000
N2   N   0.444444135654482   0.055547040535750   0.624840191622388   1.0000000
N2   N   0.944368327075723   0.555502639118420   0.624658454995916   1.0000000
N2   N   0.111066228232464   0.555532364264823   0.125288359476797   1.0000000
N2   N   0.777784420960259   0.055558877146801   0.624685710292183   1.0000000
N2   N   0.277758823071421   0.055540566396171   0.125108961102954   1.0000000
N2   N   0.444431016006239   0.555566070211808   0.123942068206812   1.0000000
N2   N   0.777678276889061   0.555505805111246   0.124581641192460   1.0000000
N2   N   0.611135557151213   0.055538469800443   0.125283515515806   1.0000000
N2   N   0.444431016006239   0.555566070211808   0.626057931793140   1.0000000
N2   N   0.944428807351491   0.055562860060382   0.125302998130905   1.0000000
N2   N   0.277757346446217   0.722213270731534   0.624673760649468   1.0000000
N2   N   0.111016347171667   0.222174840252504   0.625060396845544   1.0000000
N2   N   0.444431016006239   0.222198279127835   0.626057931793140   1.0000000
N2   N   0.611150592644764   0.722320352996636   0.625749294951933   1.0000000
N2   N   0.944368327075723   0.722199021290766   0.624658454995916   1.0000000
N2   N   0.777806035119888   0.222168773535521   0.624889603442502   1.0000000
N2   N   0.111036315655400   0.722184824494248   0.125336266799115   1.0000000
N2   N   0.444444135654482   0.722230428452037   0.125159808377519   1.0000000
N2   N   0.277623276199135   0.222126039890829   0.124115945243745   1.0000000
N2   N   0.777777314896696   0.722312631984192   0.124299687739589   1.0000000
N2   N   0.611150592644764   0.222163572981430   0.124250705048116   1.0000000
N2   N   0.944428807351491   0.222199280624400   0.125302998130905   1.0000000
N2   N   0.111044997313686   0.388860230853036   0.624822792130990   1.0000000
N2   N   0.277757346446217   0.888877409047942   0.624673760649468   1.0000000
N2   N   0.611135557151212   0.888930420684153   0.624716484484271   1.0000000
N2   N   0.443932389750981   0.388632861542098   0.628126498346592   1.0000000
N2   N   0.944427515055026   0.888922971300637   0.624674066326815   1.0000000
N2   N   0.111066228232464   0.888867197300920   0.125288359476796   1.0000000
N2   N   0.777777314896703   0.388798016245995   0.625700312260422   1.0000000
N2   N   0.444447507517743   0.888890420425562   0.125305518192340   1.0000000
N2   N   0.277623276199135   0.388830569641674   0.124115945243745   1.0000000
N2   N   0.277758823071421   0.555551590008546   0.125108961102954   1.0000000
N2   N   0.611217256164224   0.388698488429810   0.121192051501562   1.0000000
N2   N   0.777806035119888   0.888970594917832   0.125110396557511   1.0000000
N2   N   0.944427515055026   0.388837877087774   0.125325933673188   1.0000000
N2   N   0.111066228232462   0.555532364264823   0.624711640523197   1.0000000
N2   N   0.277758823071421   0.055540566396171   0.624891038897072   1.0000000
N2   N   0.777678276889061   0.555505805111246   0.625418358807496   1.0000000
N2   N   0.611135557151213   0.055538469800443   0.624716484484271   1.0000000
N2   N   0.944428807351491   0.055562860060382   0.624697001869182   1.0000000
N2   N   0.056675503387494   0.111787425586245   0.375000000000000   1.0000000
N2   N   0.552357411501190   0.629767608269679   0.375000000000000   1.0000000
N2   N   0.384856601110808   0.099489904441568   0.375000000000000   1.0000000
N2   N   0.889302508131482   0.611317920732428   0.375000000000000   1.0000000
N2   N   0.723750177161444   0.109975885420122   0.375000000000000   1.0000000
N2   N   0.055511512594905   0.777746723624076   0.875000000000000   1.0000000
N2   N   0.388839804248243   0.777755249633389   0.875000000000000   1.0000000
N2   N   0.222218704555732   0.277776018944477   0.875000000000000   1.0000000
N2   N   0.722176873215070   0.777737889198566   0.875000000000000   1.0000000
N2   N   0.555507435193349   0.277738616200363   0.875000000000000   1.0000000
N2   N   0.888863956845618   0.277766274906747   0.875000000000000   1.0000000
N2   N   0.219242501489219   0.776287917411268   0.375000000000000   1.0000000
N2   N   0.056675503387493   0.278221411134587   0.375000000000000   1.0000000
N2   N   0.379786135908019   0.255027452095877   0.375000000000000   1.0000000
N2   N   0.554506365059475   0.786087441225075   0.375000000000000   1.0000000
N2   N   0.891652162375383   0.781262674686582   0.375000000000000   1.0000000
N2   N   0.724180608332324   0.273735107734704   0.375000000000000   1.0000000
N2   N   0.055519712931341   0.944429675398437   0.875000000000000   1.0000000
N2   N   0.388839804248243   0.944417887948252   0.875000000000000   1.0000000
N2   N   0.222193625914562   0.444445288996618   0.875000000000000   1.0000000
N2   N   0.555517140382345   0.444425236857835   0.875000000000000   1.0000000
N2   N   0.722171482131625   0.944423634277927   0.875000000000000   1.0000000
N2   N   0.888867415358051   0.444431442612587   0.875000000000000   1.0000000
N2   N   0.054626130137525   0.444713006191329   0.375000000000000   1.0000000
N2   N   0.218961829976251   0.940046262447227   0.375000000000000   1.0000000
N2   N   0.554702935583898   0.944018134458537   0.375000000000000   1.0000000
N2   N   0.379786135908019   0.458092017145484   0.375000000000000   1.0000000
N2   N   0.890730058362590   0.946883156484540   0.375000000000000   1.0000000
N2   N   0.728993061050939   0.441181462752216   0.375000000000000   1.0000000
N2   N   0.222197767565571   0.611112963792131   0.875000000000000   1.0000000
N2   N   0.055521419427184   0.111084801818334   0.875000000000000   1.0000000
N2   N   0.555507435193349   0.611102152326346   0.875000000000000   1.0000000
N2   N   0.388842953382438   0.111059675899454   0.875000000000000   1.0000000
N2   N   0.888877212676711   0.611105273004868   0.875000000000000   1.0000000
N2   N   0.053909429019386   0.610721238770821   0.375000000000000   1.0000000
N2   N   0.722171482131625   0.111081181186996   0.875000000000000   1.0000000
N2   N   0.217456572008750   0.104159812199238   0.375000000000000   1.0000000
N2   N   0.384856601110809   0.618700030002579   0.375000000000000   1.0000000
N2   N   0.728993061050939   0.621144931632126   0.375000000000000   1.0000000
N2   N   0.554506365059475   0.101752257167536   0.375000000000000   1.0000000
N2   N   0.388842953382438   0.611116610816315   0.875000000000000   1.0000000
N2   N   0.890810837205776   0.112072085269539   0.375000000000000   1.0000000
N2   N   0.222176234374610   0.777754783853981   0.875000000000000   1.0000000
N2   N   0.055521419427184   0.277769950942160   0.875000000000000   1.0000000
N2   N   0.388854252367363   0.277741509727636   0.875000000000000   1.0000000
N2   N   0.555511866893901   0.777763193569501   0.875000000000000   1.0000000
N2   N   0.888867415358051   0.777769306078887   0.875000000000000   1.0000000
N2   N   0.722176873215070   0.277772317349862   0.875000000000000   1.0000000
N2   N   0.053909429019386   0.776521523581795   0.375000000000000   1.0000000
N2   N   0.385972588144364   0.779411832185853   0.375000000000000   1.0000000
N2   N   0.223773555546874   0.278553444440147   0.375000000000000   1.0000000
N2   N   0.724180608332337   0.783778833930684   0.375000000000000   1.0000000
N2   N   0.552357411501184   0.255923136564830   0.375000000000000   1.0000000
N2   N   0.890730058362592   0.277180235211486   0.375000000000000   1.0000000
N2   N   0.055519712931341   0.444423370866137   0.875000000000000   1.0000000
N2   N   0.222197767565569   0.944418137106835   0.875000000000000   1.0000000
N2   N   0.555524439616700   0.944428886474947   0.875000000000000   1.0000000
N2   N   0.388854252367363   0.444446075973141   0.875000000000000   1.0000000
N2   N   0.888863956845668   0.944431015272184   0.875000000000000   1.0000000
N2   N   0.054626130137526   0.943246457279532   0.375000000000000   1.0000000
N2   N   0.722209886344207   0.444448279627359   0.875000000000000   1.0000000
N2   N   0.385972588144364   0.939894089291876   0.375000000000000   1.0000000
N2   N   0.217456572008749   0.446630093142814   0.375000000000000   1.0000000
N2   N   0.218961829976251   0.612248900862344   0.375000000000000   1.0000000
N2   N   0.723750177161444   0.947107625074664   0.375000000000000   1.0000000
N2   N   0.891652162375383   0.443722821022179   0.375000000000000   1.0000000
N2   N   0.055511512594905   0.611098122304019   0.875000000000000   1.0000000
N2   N   0.222193625914560   0.111081670251209   0.875000000000000   1.0000000
N2   N   0.722209886344207   0.611094940050130   0.875000000000000   1.0000000
N2   N   0.555511866893901   0.111082006657816   0.875000000000000   1.0000000
N2   N   0.888850807643305   0.111092070488384   0.875000000000000   1.0000000
B2   B   0.108839761170572   0.052987643622614   0.375000000000000   1.0000000
B2   B   0.616605419433553   0.588832872195403   0.375000000000000   1.0000000
B2   B   0.442984219666706   0.048614259471709   0.375000000000000   1.0000000
B2   B   0.943886521161848   0.554802699654281   0.375000000000000   1.0000000
B2   B   0.780159634837656   0.056746484085468   0.375000000000000   1.0000000
B2   B   0.110948059012065   0.722140696172630   0.875000000000000   1.0000000
B2   B   0.444324032183311   0.722124695278951   0.875000000000000   1.0000000
B2   B   0.277894548379181   0.222340760203272   0.875000000000000   1.0000000
B2   B   0.777590638119134   0.722060457193588   0.875000000000000   1.0000000
B2   B   0.611066002101133   0.222348965827110   0.875000000000000   1.0000000
B2   B   0.944453974945695   0.222291836178867   0.875000000000000   1.0000000
B2   B   0.275277695449884   0.722453476040308   0.375000000000000   1.0000000
B2   B   0.113129265190807   0.223231299262081   0.375000000000000   1.0000000
B2   B   0.441039767193244   0.208249077190809   0.375000000000000   1.0000000
B2   B   0.612127048961920   0.735620760422439   0.375000000000000   1.0000000
B2   B   0.943886521161848   0.722417154840788   0.375000000000000   1.0000000
B2   B   0.780083140743462   0.220394623327861   0.375000000000000   1.0000000
B2   B   0.111062036943823   0.888863566248145   0.875000000000000   1.0000000
B2   B   0.444387239091792   0.888860286212514   0.875000000000000   1.0000000
B2   B   0.277894548379179   0.388887121509259   0.875000000000000   1.0000000
B2   B   0.611028428450042   0.388892925034296   0.875000000000000   1.0000000
B2   B   0.777693314094821   0.888800181150924   0.875000000000000   1.0000000
B2   B   0.944438609572545   0.388842507463550   0.875000000000000   1.0000000
B2   B   0.108839761170571   0.389185450881325   0.375000000000000   1.0000000
B2   B   0.275277695449884   0.886157552742880   0.375000000000000   1.0000000
B2   B   0.612550475640744   0.893647894162579   0.375000000000000   1.0000000
B2   B   0.945405866228324   0.890770689144065   0.375000000000000   1.0000000
B2   B   0.782380418313132   0.386013035219863   0.375000000000000   1.0000000
B2   B   0.277820519385138   0.555621261837555   0.875000000000000   1.0000000
B2   B   0.111040971869634   0.055517219992335   0.875000000000000   1.0000000
B2   B   0.611028428450042   0.555468836749016   0.875000000000000   1.0000000
B2   B   0.444324032183311   0.055532670237715   0.875000000000000   1.0000000
B2   B   0.944402627868848   0.555594724426612   0.875000000000000   1.0000000
B2   B   0.108951351285748   0.555513560450736   0.375000000000000   1.0000000
B2   B   0.777619255196096   0.055476294264739   0.875000000000000   1.0000000
B2   B   0.274516257837598   0.049767319303882   0.375000000000000   1.0000000
B2   B   0.441039767193244   0.566124023335808   0.375000000000000   1.0000000
B2   B   0.779548097213933   0.556440715273611   0.375000000000000   1.0000000
B2   B   0.612550475640740   0.052235914811416   0.375000000000000   1.0000000
B2   B   0.444434785234864   0.555499899216586   0.875000000000000   1.0000000
B2   B   0.946419634956816   0.057233169133498   0.375000000000000   1.0000000
B2   B   0.277775051357969   0.722158837032052   0.875000000000000   1.0000000
B2   B   0.111140044381738   0.222236688857531   0.875000000000000   1.0000000
B2   B   0.444434785234862   0.222268219351590   0.875000000000000   1.0000000
B2   B   0.611066002101133   0.722050369607338   0.875000000000000   1.0000000
B2   B   0.944402627868840   0.722141236775592   0.875000000000000   1.0000000
B2   B   0.777693314094821   0.222226466277146   0.875000000000000   1.0000000
B2   B   0.108900430736488   0.721116882034931   0.375000000000000   1.0000000
B2   B   0.442984219666706   0.727703293528359   0.375000000000000   1.0000000
B2   B   0.273577052386511   0.214127184438260   0.375000000000000   1.0000000
B2   B   0.782380418313132   0.729700716426508   0.375000000000000   1.0000000
B2   B   0.612127048961920   0.209839621872792   0.375000000000000   1.0000000
B2   B   0.946419634956820   0.222519799156608   0.375000000000000   1.0000000
B2   B   0.111040971869634   0.388857085210628   0.875000000000000   1.0000000
B2   B   0.277775051357966   0.888949547659232   0.875000000000000   1.0000000
B2   B   0.611088007116371   0.888900202725765   0.875000000000000   1.0000000
B2   B   0.444444054186441   0.388888693759938   0.875000000000000   1.0000000
B2   B   0.944438609572542   0.888929435442298   0.875000000000000   1.0000000
B2   B   0.108951351285748   0.886771124168334   0.375000000000000   1.0000000
B2   B   0.777590638119134   0.388863514258775   0.875000000000000   1.0000000
B2   B   0.443437890967892   0.888385612150546   0.375000000000000   1.0000000
B2   B   0.273577052386506   0.392783201281584   0.375000000000000   1.0000000
B2   B   0.274516257837598   0.558082271866971   0.375000000000000   1.0000000
B2   B   0.616605419433553   0.361105880571523   0.375000000000000   1.0000000
B2   B   0.780083140743462   0.893021850748924   0.375000000000000   1.0000000
B2   B   0.945405866228324   0.387968510417526   0.375000000000000   1.0000000
B2   B   0.111062036943823   0.555531804029099   0.875000000000000   1.0000000
B2   B   0.277820519385139   0.055532590880887   0.875000000000000   1.0000000
B2   B   0.777647194948114   0.555490264140589   0.875000000000000   1.0000000
B2   B   0.611088007116371   0.055521137723943   0.875000000000000   1.0000000
B2   B   0.944453974945695   0.055495472100144   0.875000000000000   1.0000000
B2   B   0.055535553289450   0.111082641154514   0.125261011037823   1.0000000
B2   B   0.555732325949522   0.610915512431148   0.123582109338706   1.0000000
B2   B   0.388996382030882   0.111346617589436   0.125043366956477   1.0000000
B2   B   0.888622075689795   0.610977704511643   0.125283687363762   1.0000000
B2   B   0.722205588725773   0.111070275199273   0.125339770845651   1.0000000
B2   B   0.055392055671502   0.777667785414394   0.624611017891758   1.0000000
B2   B   0.388904612064356   0.777673117404921   0.624624098286321   1.0000000
B2   B   0.222332989451761   0.277833161392533   0.625396832922020   1.0000000
B2   B   0.722113505785964   0.777649226783046   0.625307655956029   1.0000000
B2   B   0.555732325949522   0.278150146851767   0.626417890661342   1.0000000
B2   B   0.888919838167185   0.277774066148374   0.624658317307418   1.0000000
B2   B   0.222204076057198   0.777768704695309   0.125373635052719   1.0000000
B2   B   0.055535553289449   0.277786245468295   0.125261011037823   1.0000000
B2   B   0.388965737098198   0.278013492915480   0.123582391649236   1.0000000
B2   B   0.555612638296625   0.777697279312535   0.125091805585779   1.0000000
B2   B   0.888718202275163   0.777707513177410   0.125136283853216   1.0000000
B2   B   0.722113505785964   0.277797612336365   0.124692344043876   1.0000000
B2   B   0.055478806131018   0.944488714591594   0.624622082849551   1.0000000
B2   B   0.388904612064355   0.944564827992710   0.624624098286321   1.0000000
B2   B   0.222270671231108   0.444389042610181   0.624966580629883   1.0000000
B2   B   0.555506281339640   0.444419807336485   0.622055549182801   1.0000000
B2   B   0.722205588725773   0.944468646859890   0.624660229154368   1.0000000
B2   B   0.888718202275163   0.444344022431066   0.624863716146781   1.0000000
B2   B   0.055478806131017   0.444323424872779   0.125377917150482   1.0000000
B2   B   0.222310889080543   0.944567860186057   0.125349401737410   1.0000000
B2   B   0.555650562350966   0.944491947842160   0.125419003359713   1.0000000
B2   B   0.388965737098198   0.444285577516118   0.123582391649236   1.0000000
B2   B   0.888919838167185   0.944479105352225   0.125341682692538   1.0000000
B2   B   0.721731858219190   0.444128752369637   0.123564862310306   1.0000000
B2   B   0.222310889080541   0.611076362227957   0.624650598262587   1.0000000
B2   B   0.055535553289450   0.111082641154514   0.624738988962239   1.0000000
B2   B   0.555732325949522   0.610915512431149   0.626417890661342   1.0000000
B2   B   0.388996382030882   0.111346617589436   0.624956633043566   1.0000000
B2   B   0.888622075689795   0.610977704511643   0.624716312636247   1.0000000
B2   B   0.055392055671502   0.611057603590538   0.125388982108312   1.0000000
B2   B   0.722205588725773   0.111070275199274   0.624660229154368   1.0000000
B2   B   0.222270671231108   0.111214961954226   0.125033419370125   1.0000000
B2   B   0.388996382030882   0.610983097774739   0.125043366956478   1.0000000
B2   B   0.721731858219190   0.610936439182936   0.123564862310306   1.0000000
B2   B   0.555612638296625   0.111248692317451   0.125091805585779   1.0000000
B2   B   0.388996382030881   0.610983097774739   0.624956633043566   1.0000000
B2   B   0.888899912149558   0.111116622741475   0.125404493793025   1.0000000
B2   B   0.222204076057200   0.777768704695309   0.624626364947278   1.0000000
B2   B   0.055535553289449   0.277786245468295   0.624738988962239   1.0000000
B2   B   0.388965737098199   0.278013492915480   0.626417608350828   1.0000000
B2   B   0.555612638296625   0.777697279312535   0.624908194414191   1.0000000
B2   B   0.888718202275163   0.777707513177410   0.624863716146792   1.0000000
B2   B   0.722113505785964   0.277797612336365   0.625307655956029   1.0000000
B2   B   0.055392055671502   0.777667785414394   0.125388982108312   1.0000000
B2   B   0.388904612064356   0.777673117404921   0.125375901713717   1.0000000
B2   B   0.222332989451761   0.277833161392533   0.124603167078032   1.0000000
B2   B   0.722113505785964   0.777649226783046   0.124692344043875   1.0000000
B2   B   0.555732325949522   0.278150146851767   0.123582109338705   1.0000000
B2   B   0.888919838167185   0.277774066148374   0.125341682692538   1.0000000
B2   B   0.055478806131017   0.444323424872779   0.624622082849551   1.0000000
B2   B   0.222310889080543   0.944567860186057   0.624650598262587   1.0000000
B2   B   0.555650562350966   0.944491947842160   0.624580996640402   1.0000000
B2   B   0.388965737098198   0.444285577516118   0.626417608350828   1.0000000
B2   B   0.888919838167185   0.944479105352225   0.624658317307418   1.0000000
B2   B   0.055478806131017   0.944488714591594   0.125377917150482   1.0000000
B2   B   0.721731858219190   0.444128752369637   0.626435137689699   1.0000000
B2   B   0.388904612064356   0.944564827992710   0.125375901713717   1.0000000
B2   B   0.222270671231108   0.444389042610181   0.125033419370125   1.0000000
B2   B   0.222310889080543   0.611076362227957   0.125349401737410   1.0000000
B2   B   0.555506281339641   0.444419807336484   0.127944450817192   1.0000000
B2   B   0.722205588725773   0.944468646859890   0.125339770845651   1.0000000
B2   B   0.888718202275166   0.444344022431066   0.125136283853216   1.0000000
B2   B   0.055392055671501   0.611057603590538   0.624611017891758   1.0000000
B2   B   0.222270671231108   0.111214961954227   0.624966580629883   1.0000000
B2   B   0.721731858219193   0.610936439182936   0.626435137689699   1.0000000
B2   B   0.555612638296625   0.111248692317451   0.624908194414191   1.0000000
B2   B   0.888899912149558   0.111116622741475   0.624595506206857   1.0000000


