data_1
_audit_creation_method   'vasp2cif'
_cell_length_a    14.93631414619966
_cell_length_b    14.936314146199727
_cell_length_c    13.341276283792837
_cell_angle_alpha    90.0
_cell_angle_beta    90.0
_cell_angle_gamma    119.99999999999984

_symmetry_space_group_name_H-M    'P 1'
loop_
_atom_site_label
_atom_site_type_symbol
_atom_site_fract_x
_atom_site_fract_y
_atom_site_fract_z
_atom_site_occupancy
Si2   Si   0.444444444444443   0.388888888888886   0.375000000000000   1.0000000
N2   N   0.111104898410812   0.055539580536078   0.124807905864339   1.0000000
N2   N   0.611125229274023   0.555558659854683   0.125984293580861   1.0000000
N2   N   0.444434682125279   0.055539580536078   0.124807905864339   1.0000000
N2   N   0.944457029778804   0.555564254125215   0.124952739107703   1.0000000
N2   N   0.777777777777779   0.055555555555557   0.125041664625780   1.0000000
N2   N   0.111111111111114   0.722222222222221   0.624948704479615   1.0000000
N2   N   0.444434682125279   0.722228434922541   0.625192094135651   1.0000000
N2   N   0.277774673478627   0.222208104059293   0.624015706419126   1.0000000
N2   N   0.777793752797262   0.722228434922541   0.625192094135651   1.0000000
N2   N   0.611105839264001   0.222227494069339   0.625084847189968   1.0000000
N2   N   0.944450986985100   0.222229041961114   0.625065321355086   1.0000000
N2   N   0.277769079208104   0.722226108986926   0.124952739107703   1.0000000
N2   N   0.111121654805351   0.222227494069339   0.124915152810057   1.0000000
N2   N   0.444433430580657   0.222208104059292   0.125984293580861   1.0000000
N2   N   0.611105839264001   0.722211678527958   0.124915152810057   1.0000000
N2   N   0.944457029778804   0.722226108986926   0.124952739107703   1.0000000
N2   N   0.777778054976004   0.222229041961114   0.124934678644911   1.0000000
N2   N   0.111107224346408   0.888876303554525   0.625047260892298   1.0000000
N2   N   0.444437188215444   0.888885260774405   0.625089169638038   1.0000000
N2   N   0.277774673478627   0.388899902752672   0.624015706419126   1.0000000
N2   N   0.611125229274023   0.388899902752672   0.624015706419126   1.0000000
N2   N   0.777778054976004   0.888882346348229   0.625065321355086   1.0000000
N2   N   0.944448072558923   0.388896145117884   0.625089169638038   1.0000000
N2   N   0.111104898410812   0.388898651208049   0.124807905864339   1.0000000
N2   N   0.277769079208104   0.888876303554525   0.124952739107703   1.0000000
N2   N   0.611104291372199   0.888882346348229   0.124934678644911   1.0000000
N2   N   0.444444444444443   0.388888888888886   0.131710601705171   1.0000000
N2   N   0.944448072558923   0.888885260774405   0.124910830361966   1.0000000
N2   N   0.777793752797262   0.388898651208049   0.124807905864339   1.0000000
N2   N   0.277767014958990   0.555566318374353   0.625037011099364   1.0000000
N2   N   0.111104898410812   0.055539580536078   0.625192094135651   1.0000000
N2   N   0.611125229274023   0.555558659854683   0.624015706419126   1.0000000
N2   N   0.444434682125279   0.055539580536078   0.625192094135651   1.0000000
N2   N   0.944457029778804   0.555564254125215   0.625047260892298   1.0000000
N2   N   0.111107224346408   0.555564254125215   0.124952739107703   1.0000000
N2   N   0.777777777777779   0.055555555555557   0.624958335374231   1.0000000
N2   N   0.277767014958990   0.055534029917953   0.124962988900612   1.0000000
N2   N   0.444433430580657   0.555558659854683   0.125984293580861   1.0000000
N2   N   0.777799303415356   0.555566318374353   0.124962988900612   1.0000000
N2   N   0.611104291372199   0.055555278357312   0.124934678644911   1.0000000
N2   N   0.444433430580657   0.555558659854683   0.624015706419126   1.0000000
N2   N   0.944450986985100   0.055555278357312   0.124934678644911   1.0000000
N2   N   0.277769079208104   0.722226108986926   0.625047260892298   1.0000000
N2   N   0.111121654805351   0.222227494069339   0.625084847189968   1.0000000
N2   N   0.444433430580657   0.222208104059293   0.624015706419126   1.0000000
N2   N   0.611105839264001   0.722211678527958   0.625084847189968   1.0000000
N2   N   0.944457029778804   0.722226108986926   0.625047260892298   1.0000000
N2   N   0.777778054976004   0.222229041961114   0.625065321355086   1.0000000
N2   N   0.111111111111114   0.722222222222221   0.125051295520426   1.0000000
N2   N   0.444434682125279   0.722228434922541   0.124807905864339   1.0000000
N2   N   0.277774673478627   0.222208104059292   0.125984293580861   1.0000000
N2   N   0.777793752797262   0.722228434922541   0.124807905864339   1.0000000
N2   N   0.611105839264001   0.222227494069339   0.124915152810057   1.0000000
N2   N   0.944450986985100   0.222229041961114   0.124934678644911   1.0000000
N2   N   0.111104898410812   0.388898651208049   0.625192094135651   1.0000000
N2   N   0.277769079208104   0.888876303554525   0.625047260892298   1.0000000
N2   N   0.611104291372199   0.888882346348229   0.625065321355086   1.0000000
N2   N   0.444444444444443   0.388888888888886   0.618289398294823   1.0000000
N2   N   0.944448072558923   0.888885260774405   0.625089169638038   1.0000000
N2   N   0.111107224346408   0.888876303554525   0.124952739107703   1.0000000
N2   N   0.777793752797262   0.388898651208049   0.625192094135651   1.0000000
N2   N   0.444437188215444   0.888885260774405   0.124910830361966   1.0000000
N2   N   0.277774673478627   0.388899902752672   0.125984293580861   1.0000000
N2   N   0.277767014958990   0.555566318374353   0.124962988900612   1.0000000
N2   N   0.611125229274023   0.388899902752672   0.125984293580861   1.0000000
N2   N   0.777778054976004   0.888882346348229   0.124934678644911   1.0000000
N2   N   0.944448072558923   0.388896145117884   0.124910830361966   1.0000000
N2   N   0.111107224346408   0.555564254125215   0.625047260892298   1.0000000
N2   N   0.277767014958990   0.055534029917953   0.625037011099364   1.0000000
N2   N   0.777799303415356   0.555566318374353   0.625037011099364   1.0000000
N2   N   0.611104291372199   0.055555278357311   0.625065321355086   1.0000000
N2   N   0.944450986985100   0.055555278357311   0.625065321355086   1.0000000
N2   N   0.054795764663006   0.110596774464674   0.375000000000000   1.0000000
N2   N   0.556056460645631   0.612112921291302   0.375000000000000   1.0000000
N2   N   0.388266439574172   0.107458841315596   0.375000000000000   1.0000000
N2   N   0.890063714397380   0.611698523865350   0.375000000000000   1.0000000
N2   N   0.722353053486819   0.110980279846511   0.375000000000000   1.0000000
N2   N   0.055554157761317   0.777779175572015   0.875000000000000   1.0000000
N2   N   0.388892837860338   0.777779180215618   0.875000000000000   1.0000000
N2   N   0.222226403741585   0.277779868537466   0.875000000000000   1.0000000
N2   N   0.722221826615501   0.777779637200127   0.875000000000000   1.0000000
N2   N   0.555553464795875   0.277779868537466   0.875000000000000   1.0000000
N2   N   0.888888781166648   0.277777562333281   0.875000000000000   1.0000000
N2   N   0.222008172483455   0.777670752908415   0.375000000000000   1.0000000
N2   N   0.054795764663006   0.277532323531657   0.375000000000000   1.0000000
N2   N   0.382556561614131   0.265113123228283   0.375000000000000   1.0000000
N2   N   0.555801009801659   0.778537568670306   0.375000000000000   1.0000000
N2   N   0.889897801510682   0.778626362978815   0.375000000000000   1.0000000
N2   N   0.722736558868669   0.277532323531657   0.375000000000000   1.0000000
N2   N   0.055554153117703   0.944446990978034   0.875000000000000   1.0000000
N2   N   0.388892837860338   0.944446990978034   0.875000000000000   1.0000000
N2   N   0.222226531451724   0.444437385388220   0.875000000000000   1.0000000
N2   N   0.555534994271585   0.444434163802457   0.875000000000000   1.0000000
N2   N   0.722222408587205   0.944444817174413   0.875000000000000   1.0000000
N2   N   0.888886342355294   0.444440495472991   0.875000000000000   1.0000000
N2   N   0.054706970354504   0.444604771865196   0.375000000000000   1.0000000
N2   N   0.221634809467971   0.943269618935949   0.375000000000000   1.0000000
N2   N   0.555743729129871   0.944538531231612   0.375000000000000   1.0000000
N2   N   0.382556561614131   0.450776771719197   0.375000000000000   1.0000000
N2   N   0.888794802101716   0.944538531231612   0.375000000000000   1.0000000
N2   N   0.725874492017741   0.445066893759157   0.375000000000000   1.0000000
N2   N   0.222225578467275   0.611107754866029   0.875000000000000   1.0000000
N2   N   0.055553696133208   0.111111506717855   0.875000000000000   1.0000000
N2   N   0.555553464795875   0.611106929591739   0.875000000000000   1.0000000
N2   N   0.388895947945109   0.111122479396863   0.875000000000000   1.0000000
N2   N   0.888882176398786   0.611107754866029   0.875000000000000   1.0000000
N2   N   0.055662580424937   0.611325160849886   0.375000000000000   1.0000000
N2   N   0.722222408587205   0.111110924746140   0.875000000000000   1.0000000
N2   N   0.219192401741403   0.107458841315596   0.375000000000000   1.0000000
N2   N   0.388266439574172   0.614140931591919   0.375000000000000   1.0000000
N2   N   0.725874492017741   0.614140931591919   0.375000000000000   1.0000000
N2   N   0.555801009801659   0.110596774464674   0.375000000000000   1.0000000
N2   N   0.388895947945109   0.611106801881600   0.875000000000000   1.0000000
N2   N   0.888627226359689   0.110980279846511   0.375000000000000   1.0000000
N2   N   0.222225017810700   0.777779175572015   0.875000000000000   1.0000000
N2   N   0.055553696133208   0.277775522748705   0.875000000000000   1.0000000
N2   N   0.388899169530872   0.277798339061783   0.875000000000000   1.0000000
N2   N   0.555557810584623   0.777779637200127   0.875000000000000   1.0000000
N2   N   0.888886342355294   0.777779180215618   0.875000000000000   1.0000000
N2   N   0.722221826615501   0.277775522748705   0.875000000000000   1.0000000
N2   N   0.055662580424937   0.777670752908415   0.375000000000000   1.0000000
N2   N   0.388728561468132   0.778626362978815   0.375000000000000   1.0000000
N2   N   0.221220412042063   0.277276872687684   0.375000000000000   1.0000000
N2   N   0.722736558868669   0.778537568670306   0.375000000000000   1.0000000
N2   N   0.556056460645631   0.277276872687684   0.375000000000000   1.0000000
N2   N   0.888794802101716   0.277589604203490   0.375000000000000   1.0000000
N2   N   0.055554153117703   0.444440495472991   0.875000000000000   1.0000000
N2   N   0.222225578467274   0.944451156934542   0.875000000000000   1.0000000
N2   N   0.555555771000032   0.944444552166680   0.875000000000000   1.0000000
N2   N   0.388899169530872   0.444434163802457   0.875000000000000   1.0000000
N2   N   0.888888781166648   0.944444552166680   0.875000000000000   1.0000000
N2   N   0.054706970354504   0.943435531822646   0.375000000000000   1.0000000
N2   N   0.722210853936495   0.444437385388220   0.875000000000000   1.0000000
N2   N   0.388728561468132   0.943435531822646   0.375000000000000   1.0000000
N2   N   0.219192401741403   0.445066893759157   0.375000000000000   1.0000000
N2   N   0.221634809467971   0.611698523865350   0.375000000000000   1.0000000
N2   N   0.568220210105066   0.450776771719197   0.375000000000000   1.0000000
N2   N   0.722353053486819   0.944706106973639   0.375000000000000   1.0000000
N2   N   0.889897801510682   0.444604771865196   0.375000000000000   1.0000000
N2   N   0.055554157761317   0.611108315522629   0.875000000000000   1.0000000
N2   N   0.222226531451724   0.111122479396863   0.875000000000000   1.0000000
N2   N   0.722210853936495   0.611106801881600   0.875000000000000   1.0000000
N2   N   0.555557810584623   0.111111506717855   0.875000000000000   1.0000000
N2   N   0.888888516158916   0.111110924746140   0.875000000000000   1.0000000
B2   B   0.108573644772198   0.053371681651932   0.375000000000000   1.0000000
B2   B   0.617132106159239   0.561783139537612   0.375000000000000   1.0000000
B2   B   0.444798036879724   0.053371681651932   0.375000000000000   1.0000000
B2   B   0.945097735739907   0.555707586556359   0.375000000000000   1.0000000
B2   B   0.777777777777779   0.055555555555557   0.375000000000000   1.0000000
B2   B   0.111111111111114   0.722222222222221   0.875000000000000   1.0000000
B2   B   0.444456546029852   0.722257244137610   0.875000000000000   1.0000000
B2   B   0.277728706973167   0.222185961461431   0.875000000000000   1.0000000
B2   B   0.777800698107756   0.722257244137610   0.875000000000000   1.0000000
B2   B   0.611138411461780   0.222194921871530   0.875000000000000   1.0000000
B2   B   0.944420453239659   0.222207617423522   0.875000000000000   1.0000000
B2   B   0.277625746776959   0.722723482516806   0.375000000000000   1.0000000
B2   B   0.109366125987962   0.221349729660650   0.375000000000000   1.0000000
B2   B   0.444651033378375   0.216201227174121   0.375000000000000   1.0000000
B2   B   0.611983603672673   0.723967207345389   0.375000000000000   1.0000000
B2   B   0.945097735739907   0.722723482516806   0.375000000000000   1.0000000
B2   B   0.777999718781510   0.221769605162092   0.375000000000000   1.0000000
B2   B   0.111101773323627   0.888879634749735   0.875000000000000   1.0000000
B2   B   0.444454157709703   0.888893745521511   0.875000000000000   1.0000000
B2   B   0.277728706973169   0.388876078845075   0.875000000000000   1.0000000
B2   B   0.611147371871924   0.388876078845075   0.875000000000000   1.0000000
B2   B   0.777787164183871   0.888912880093670   0.875000000000000   1.0000000
B2   B   0.944439587811818   0.388879175623625   0.875000000000000   1.0000000
B2   B   0.108573644772198   0.388535296453604   0.375000000000000   1.0000000
B2   B   0.277625746776959   0.888235597593421   0.375000000000000   1.0000000
B2   B   0.611563728171253   0.889563446952757   0.375000000000000   1.0000000
B2   B   0.944276956047471   0.889056377285858   0.375000000000000   1.0000000
B2   B   0.779961651681389   0.388535296453604   0.375000000000000   1.0000000
B2   B   0.277764138865721   0.555569194467603   0.875000000000000   1.0000000
B2   B   0.111076089195745   0.055532635225592   0.875000000000000   1.0000000
B2   B   0.611147371871924   0.555604626360190   0.875000000000000   1.0000000
B2   B   0.444456546029852   0.055532635225592   0.875000000000000   1.0000000
B2   B   0.944453698583598   0.555555471907237   0.875000000000000   1.0000000
B2   B   0.110609850816495   0.555707586556359   0.375000000000000   1.0000000
B2   B   0.777777777777779   0.055555555555557   0.875000000000000   1.0000000
B2   B   0.276611762650387   0.053223525300779   0.375000000000000   1.0000000
B2   B   0.444651033378374   0.561783139537612   0.375000000000000   1.0000000
B2   B   0.780109808032554   0.556721570682937   0.375000000000000   1.0000000
B2   B   0.611563728171253   0.055333614551827   0.375000000000000   1.0000000
B2   B   0.444457254488254   0.555604626360190   0.875000000000000   1.0000000
B2   B   0.943769886380572   0.055333614551827   0.375000000000000   1.0000000
B2   B   0.277777861426094   0.722231560009712   0.875000000000000   1.0000000
B2   B   0.111056510409717   0.222194921871530   0.875000000000000   1.0000000
B2   B   0.444457254488254   0.222185961461431   0.875000000000000   1.0000000
B2   B   0.611138411461779   0.722276822923625   0.875000000000000   1.0000000
B2   B   0.944453698583594   0.722231560009712   0.875000000000000   1.0000000
B2   B   0.777787164183871   0.222207617423522   0.875000000000000   1.0000000
B2   B   0.111111111111114   0.722222222222221   0.375000000000000   1.0000000
B2   B   0.444798036879724   0.724759688561143   0.375000000000000   1.0000000
B2   B   0.271550193795745   0.216201227174121   0.375000000000000   1.0000000
B2   B   0.779961651681389   0.724759688561143   0.375000000000000   1.0000000
B2   B   0.611983603672673   0.221349729660650   0.375000000000000   1.0000000
B2   B   0.943769886380572   0.221769605162092   0.375000000000000   1.0000000
B2   B   0.111076089195747   0.388876787303478   0.875000000000000   1.0000000
B2   B   0.277777861426094   0.888879634749735   0.875000000000000   1.0000000
B2   B   0.611125715909790   0.888912880093670   0.875000000000000   1.0000000
B2   B   0.444444444444443   0.388888888888886   0.875000000000000   1.0000000
B2   B   0.944439587811818   0.888893745521511   0.875000000000000   1.0000000
B2   B   0.110609850816495   0.888235597593421   0.375000000000000   1.0000000
B2   B   0.777800698107756   0.388876787303478   0.875000000000000   1.0000000
B2   B   0.444779421238378   0.889056377285858   0.375000000000000   1.0000000
B2   B   0.271550193795745   0.388682299954955   0.375000000000000   1.0000000
B2   B   0.276611762650391   0.556721570682937   0.375000000000000   1.0000000
B2   B   0.617132106159239   0.388682299954955   0.375000000000000   1.0000000
B2   B   0.777999718781510   0.889563446952757   0.375000000000000   1.0000000
B2   B   0.944276956047471   0.388553912094951   0.375000000000000   1.0000000
B2   B   0.111101773323627   0.555555471907237   0.875000000000000   1.0000000
B2   B   0.277764138865721   0.055528277731446   0.875000000000000   1.0000000
B2   B   0.777805055601893   0.555569194467603   0.875000000000000   1.0000000
B2   B   0.611125715909790   0.055546169149464   0.875000000000000   1.0000000
B2   B   0.944420453239659   0.055546169149465   0.875000000000000   1.0000000
B2   B   0.055469073246405   0.111028105236760   0.124981225829593   1.0000000
B2   B   0.555649927072854   0.611299854145706   0.125512056678564   1.0000000
B2   B   0.388799808941115   0.110869385186012   0.125093908246718   1.0000000
B2   B   0.889027717985064   0.611180525659202   0.125036499184157   1.0000000
B2   B   0.722233543125201   0.111099790208134   0.125155070368672   1.0000000
B2   B   0.055573168582200   0.777760164751148   0.624846405943974   1.0000000
B2   B   0.388843332659342   0.777818694116104   0.624991151289421   1.0000000
B2   B   0.222033479187636   0.277683406260482   0.624487943321450   1.0000000
B2   B   0.722305228096570   0.777864260086902   0.625018774170393   1.0000000
B2   B   0.555649927072854   0.277683406260482   0.624487943321450   1.0000000
B2   B   0.888895796198263   0.277791592396510   0.624909553131113   1.0000000
B2   B   0.222186996168938   0.777760164751148   0.125153594056032   1.0000000
B2   B   0.055469073246405   0.277774301342993   0.124981225829593   1.0000000
B2   B   0.388680776170200   0.277361552340375   0.127283735512320   1.0000000
B2   B   0.555559031990327   0.777864260086902   0.124981225829593   1.0000000
B2   B   0.888975361456769   0.777818694116104   0.125008848710587   1.0000000
B2   B   0.722305228096570   0.277774301342993   0.124981225829593   1.0000000
B2   B   0.055514639217227   0.944357971876560   0.624991151289421   1.0000000
B2   B   0.388843332659342   0.944357971876560   0.624991151289421   1.0000000
B2   B   0.222069576244881   0.444533524392214   0.624906091753286   1.0000000
B2   B   0.555971780992928   0.444652557163129   0.622716264487651   1.0000000
B2   B   0.722233543125201   0.944467086250400   0.624844929631330   1.0000000
B2   B   0.888975361456769   0.444490000673987   0.624991151289421   1.0000000
B2   B   0.055514639217227   0.444490000673987   0.125008848710587   1.0000000
B2   B   0.222152807674130   0.944305615348264   0.125036499184157   1.0000000
B2   B   0.555541740936828   0.944437537135065   0.125090446868874   1.0000000
B2   B   0.388680776170200   0.444652557163129   0.127283735512326   1.0000000
B2   B   0.888895796198263   0.944437537135065   0.125090446868874   1.0000000
B2   B   0.722463948147309   0.444533524392214   0.125093908246718   1.0000000
B2   B   0.222152807674130   0.611180525659202   0.624963500815849   1.0000000
B2   B   0.055469073246405   0.111028105236760   0.625018774170393   1.0000000
B2   B   0.555649927072854   0.611299854145706   0.624487943321450   1.0000000
B2   B   0.388799808941115   0.110869385186012   0.624906091753286   1.0000000
B2   B   0.889027717985064   0.611180525659202   0.624963500815849   1.0000000
B2   B   0.055573168582200   0.611146337164393   0.125153594056032   1.0000000
B2   B   0.722233543125201   0.111099790208134   0.624844929631330   1.0000000
B2   B   0.222069576244881   0.110869385186012   0.125093908246718   1.0000000
B2   B   0.388799808941115   0.611263757088465   0.125093908246718   1.0000000
B2   B   0.722463948147309   0.611263757088465   0.125093908246718   1.0000000
B2   B   0.555559031990327   0.111028105236760   0.124981225829593   1.0000000
B2   B   0.388799808941115   0.611263757088465   0.624906091753286   1.0000000
B2   B   0.888866247082928   0.111099790208134   0.125155070368672   1.0000000
B2   B   0.222186996168938   0.777760164751148   0.624846405943974   1.0000000
B2   B   0.055469073246405   0.277774301342993   0.625018774170393   1.0000000
B2   B   0.388680776170200   0.277361552340374   0.622716264487651   1.0000000
B2   B   0.555559031990327   0.777864260086902   0.625018774170393   1.0000000
B2   B   0.888975361456769   0.777818694116104   0.624991151289421   1.0000000
B2   B   0.722305228096570   0.277774301342993   0.625018774170393   1.0000000
B2   B   0.055573168582200   0.777760164751148   0.125153594056032   1.0000000
B2   B   0.388843332659342   0.777818694116104   0.125008848710587   1.0000000
B2   B   0.222033479187636   0.277683406260482   0.125512056678564   1.0000000
B2   B   0.722305228096570   0.777864260086902   0.124981225829593   1.0000000
B2   B   0.555649927072854   0.277683406260482   0.125512056678564   1.0000000
B2   B   0.888895796198263   0.277791592396510   0.125090446868874   1.0000000
B2   B   0.055514639217227   0.444490000673987   0.624991151289421   1.0000000
B2   B   0.222152807674130   0.944305615348264   0.624963500815849   1.0000000
B2   B   0.555541740936828   0.944437537135065   0.624909553131113   1.0000000
B2   B   0.388680776170200   0.444652557163129   0.622716264487651   1.0000000
B2   B   0.888895796198263   0.944437537135065   0.624909553131113   1.0000000
B2   B   0.055514639217227   0.944357971876560   0.125008848710587   1.0000000
B2   B   0.722463948147309   0.444533524392214   0.624906091753286   1.0000000
B2   B   0.388843332659342   0.944357971876560   0.125008848710587   1.0000000
B2   B   0.222069576244881   0.444533524392214   0.125093908246718   1.0000000
B2   B   0.222152807674130   0.611180525659202   0.125036499184157   1.0000000
B2   B   0.555971780992928   0.444652557163129   0.127283735512320   1.0000000
B2   B   0.722233543125201   0.944467086250400   0.125155070368672   1.0000000
B2   B   0.888975361456769   0.444490000673987   0.125008848710587   1.0000000
B2   B   0.055573168582200   0.611146337164393   0.624846405943974   1.0000000
B2   B   0.222069576244881   0.110869385186012   0.624906091753286   1.0000000
B2   B   0.722463948147309   0.611263757088465   0.624906091753286   1.0000000
B2   B   0.555559031990327   0.111028105236760   0.625018774170393   1.0000000
B2   B   0.888866247082928   0.111099790208134   0.624844929631330   1.0000000


