data_1
_audit_creation_method   'vasp2cif'
_cell_length_a    17.52789999999977
_cell_length_b    17.52789999999977
_cell_length_c    15.0
_cell_angle_alpha    90.0
_cell_angle_beta    90.0
_cell_angle_gamma    119.99999999999916

_symmetry_space_group_name_H-M    'P 1'
loop_
_atom_site_label
_atom_site_type_symbol
_atom_site_fract_x
_atom_site_fract_y
_atom_site_fract_z
_atom_site_occupancy
B2   B   0.907616082236323   0.956759661276168   0.111039111189536   1.0000000
B2   B   0.906632267295624   0.098387024719067   0.111048102505883   1.0000000
B2   B   0.905446490876264   0.239951404866053   0.111082678821632   1.0000000
B2   B   0.903461065906460   0.381574542555335   0.110992639968606   1.0000000
B2   B   0.898745397813157   0.523081963193033   0.111032272187966   1.0000000
B2   B   0.901330811184661   0.666033754409469   0.111088749848158   1.0000000
B2   B   0.906365050081933   0.812868750192740   0.111066797920330   1.0000000
B2   B   0.048500327649455   0.953660960082396   0.111002745875518   1.0000000
B2   B   0.049306151614057   0.097132607817031   0.110996064954072   1.0000000
B2   B   0.049065337662031   0.239852173949307   0.111023839278996   1.0000000
B2   B   0.047661158268102   0.381886010360413   0.111017654506874   1.0000000
B2   B   0.044714982355665   0.523407288980472   0.111040805718674   1.0000000
B2   B   0.044389318870382   0.665239158074326   0.111016336861163   1.0000000
B2   B   0.045499110639319   0.808344052807263   0.111003325833249   1.0000000
B2   B   0.188308957303748   0.949769004336354   0.111030797209433   1.0000000
B2   B   0.191139763008852   0.094939974812885   0.111020814692441   1.0000000
B2   B   0.191346283128146   0.237676827344298   0.110987671986285   1.0000000
B2   B   0.191693405789421   0.381417752304922   0.111017771872093   1.0000000
B2   B   0.189726659572511   0.523637739497746   0.111106449966969   1.0000000
B2   B   0.188388988601409   0.665294552850812   0.111101988161046   1.0000000
B2   B   0.187821521858697   0.807144728479647   0.111013921332567   1.0000000
B2   B   0.330622225769887   0.948610974387172   0.111005240142715   1.0000000
B2   B   0.330208022374306   0.089855621421256   0.111043963959729   1.0000000
B2   B   0.335092195990158   0.236321029944805   0.111030167937646   1.0000000
B2   B   0.333484668874534   0.378408569964883   0.111129514915389   1.0000000
B2   B   0.334377987072705   0.523872017973359   0.111175912911515   1.0000000
B2   B   0.332705494854386   0.666207920802021   0.111152996335314   1.0000000
B2   B   0.331231555276624   0.807554561039311   0.111040718962368   1.0000000
B2   B   0.474401531986850   0.950350956512841   0.111005617786519   1.0000000
B2   B   0.473474248967209   0.088862776955747   0.110994330787190   1.0000000
B2   B   0.471439622278870   0.225260611256287   0.110931844313583   1.0000000
B2   B   0.482529607929527   0.370546748222344   0.110973057524000   1.0000000
B2   B   0.477529108965379   0.673055473230471   0.111053911546126   1.0000000
B2   B   0.475417489527958   0.811470676014599   0.111030364262664   1.0000000
B2   B   0.619136166112127   0.954725975232042   0.111001482384584   1.0000000
B2   B   0.618102785290739   0.093696921447608   0.111045076131950   1.0000000
B2   B   0.616633766168641   0.232336565536766   0.110980975422793   1.0000000
B2   B   0.612423694957780   0.367538478469921   0.110913583796799   1.0000000
B2   B   0.624690326502210   0.682078030739250   0.110909170471091   1.0000000
B2   B   0.620693471897976   0.816556543359041   0.110944412128839   1.0000000
B2   B   0.764031416164393   0.957168199862603   0.110995377193709   1.0000000
B2   B   0.762674305961804   0.097426507319595   0.111066306146386   1.0000000
B2   B   0.761392820423870   0.238242810853228   0.111047155886613   1.0000000
B2   B   0.759144646341480   0.379596300810744   0.110987245627826   1.0000000
B2   B   0.752078114451102   0.523982604064770   0.111088259286743   1.0000000
B2   B   0.764422842483558   0.672821538000435   0.111020515806060   1.0000000
B2   B   0.766555151849685   0.817751200329331   0.110983443587463   1.0000000
Ga2   Ga   0.497095409975307   0.523114008480429   0.111286513046951   1.0000000
N2   N   0.953846171048177   0.907588903694550   0.111024641834252   1.0000000
N2   N   0.954686786916684   0.051163963911130   0.111010219193728   1.0000000
N2   N   0.953899514071364   0.193193579386854   0.111051036480283   1.0000000
N2   N   0.952139656664417   0.334968515633973   0.111006058393083   1.0000000
N2   N   0.948139471576149   0.476453216453149   0.110980856184759   1.0000000
N2   N   0.947778099920610   0.617791498564463   0.111026150633845   1.0000000
N2   N   0.949974339863116   0.761253966621482   0.111041850091158   1.0000000
N2   N   0.093545716949439   0.903511436805397   0.110988842709940   1.0000000
N2   N   0.096394094834224   0.048854662379572   0.110968733330224   1.0000000
N2   N   0.096777249192338   0.191925796318613   0.110969990609826   1.0000000
N2   N   0.096391768473472   0.334829777844689   0.110980604134634   1.0000000
N2   N   0.093927813192553   0.476699650831868   0.111036088210371   1.0000000
N2   N   0.092454742577549   0.618117617223685   0.111040598150033   1.0000000
N2   N   0.092281813961079   0.760062233818789   0.110980409023009   1.0000000
N2   N   0.235562297974376   0.901996263579268   0.110988391114601   1.0000000
N2   N   0.236119640052124   0.044827383148503   0.111041920061093   1.0000000
N2   N   0.240134957291047   0.190820559585370   0.111004702642131   1.0000000
N2   N   0.239090800690480   0.332299604159351   0.110991848747976   1.0000000
N2   N   0.238760334009484   0.476595155326968   0.111071474676024   1.0000000
N2   N   0.237122342713872   0.618504546580819   0.111136423086222   1.0000000
N2   N   0.235805234926012   0.760061842597128   0.111037694464288   1.0000000
N2   N   0.379055664120397   0.902360168701081   0.110982696678501   1.0000000
N2   N   0.378501863560562   0.043311375330927   0.111002706693668   1.0000000
N2   N   0.378215679922671   0.184628418800717   0.111012305047743   1.0000000
N2   N   0.387495255680906   0.334411238738520   0.111043440542352   1.0000000
N2   N   0.377693956993429   0.471207621640350   0.111255236843893   1.0000000
N2   N   0.382090056734428   0.619706943322049   0.111135472774764   1.0000000
N2   N   0.379934319313654   0.761330172930478   0.111071489302184   1.0000000
N2   N   0.523627610240114   0.905708114452136   0.110994762245449   1.0000000
N2   N   0.522769428329618   0.044641173846172   0.111000023173339   1.0000000
N2   N   0.521833724725699   0.182833349920970   0.110946797384989   1.0000000
N2   N   0.520150679019874   0.317643557601971   0.110821281621045   1.0000000
N2   N   0.563780110188077   0.464566171419689   0.111054888018685   1.0000000
N2   N   0.533240018287664   0.636316160548887   0.111013539733865   1.0000000
N2   N   0.525035046029306   0.767268359395135   0.110973806231574   1.0000000
N2   N   0.668681269239882   0.910165750118730   0.110954987547153   1.0000000
N2   N   0.667315657717163   0.049069766560058   0.111026491554300   1.0000000
N2   N   0.666128905419406   0.188621938287608   0.111015621532403   1.0000000
N2   N   0.664371658801569   0.328205330538647   0.110932542807817   1.0000000
N2   N   0.642016920525394   0.463215361611557   0.111009360920934   1.0000000
N2   N   0.674339656377741   0.639545915642483   0.110578719370406   1.0000000
N2   N   0.672760130616251   0.774374857473966   0.110897176449389   1.0000000
N2   N   0.813224490799143   0.911287818191684   0.110985145102555   1.0000000
N2   N   0.811482617803428   0.051515083592756   0.111026627451085   1.0000000
N2   N   0.810088614690533   0.192419345011561   0.111081254544625   1.0000000
N2   N   0.807902706656329   0.333959453082173   0.110976228011948   1.0000000
N2   N   0.799852471599297   0.475302041946706   0.111023912390568   1.0000000
N2   N   0.803817214808354   0.617838224455034   0.111128390744602   1.0000000
N2   N   0.812048881281309   0.767825614709733   0.111044708836615   1.0000000


