data_1
_audit_creation_method   'vasp2cif'
_cell_length_a    17.52789999999977
_cell_length_b    17.52789999999977
_cell_length_c    15.0
_cell_angle_alpha    90.0
_cell_angle_beta    90.0
_cell_angle_gamma    119.99999999999916

_symmetry_space_group_name_H-M    'P 1'
loop_
_atom_site_label
_atom_site_type_symbol
_atom_site_fract_x
_atom_site_fract_y
_atom_site_fract_z
_atom_site_occupancy
B2   B   0.904571489204582   0.952229789732072   0.111008392837810   1.0000000
B2   B   0.904662863367026   0.095266127830127   0.111054540406839   1.0000000
B2   B   0.904598840651424   0.238160291803622   0.111053281465162   1.0000000
B2   B   0.904402087010779   0.381061539417683   0.110981837453991   1.0000000
B2   B   0.905571229195697   0.524130713266276   0.111025113789349   1.0000000
B2   B   0.904516516204390   0.666171383843508   0.111067246995114   1.0000000
B2   B   0.904904537018212   0.809552437075744   0.111049557957263   1.0000000
B2   B   0.047467783694829   0.952165476347098   0.111003560737040   1.0000000
B2   B   0.047392667245318   0.094981290669853   0.111012704358684   1.0000000
B2   B   0.047619293758423   0.238105142201080   0.111003608644030   1.0000000
B2   B   0.047487652885381   0.380928892486501   0.111008376212849   1.0000000
B2   B   0.047577981256240   0.523881481361065   0.111023452784654   1.0000000
B2   B   0.047728122684215   0.666782809194387   0.111023770029320   1.0000000
B2   B   0.047500927825276   0.809362425725760   0.110990125342720   1.0000000
B2   B   0.190472263749003   0.952223506101563   0.110995645575880   1.0000000
B2   B   0.190136531634762   0.094543940950086   0.111056810971874   1.0000000
B2   B   0.190261468418293   0.237514600466090   0.111008543626144   1.0000000
B2   B   0.190898382961629   0.381090080593074   0.110968270752282   1.0000000
B2   B   0.189856519356643   0.523977554042149   0.111070307794967   1.0000000
B2   B   0.190294789308256   0.666833359345510   0.111087611946554   1.0000000
B2   B   0.190396146770037   0.809540415266085   0.110992940460467   1.0000000
B2   B   0.333226814755467   0.952058975071040   0.111031635885734   1.0000000
B2   B   0.333753087741760   0.094834197275413   0.111096542872209   1.0000000
B2   B   0.332828547971163   0.235926570033200   0.111085025097935   1.0000000
B2   B   0.333660380598664   0.378290676588325   0.110886787273569   1.0000000
B2   B   0.332219203420583   0.526086977609469   0.110877203735801   1.0000000
B2   B   0.333159962521927   0.667833667388302   0.111130211317076   1.0000000
B2   B   0.333327279983027   0.809886580713319   0.111091348269648   1.0000000
B2   B   0.476223385247278   0.952150137235711   0.111018435758351   1.0000000
B2   B   0.475897220467962   0.094292441858690   0.111032849198119   1.0000000
B2   B   0.477294378842453   0.237746510591716   0.111078780372264   1.0000000
B2   B   0.475234838658434   0.380624936851251   0.111053757803573   1.0000000
B2   B   0.476195182361296   0.666767115399885   0.111053495444537   1.0000000
B2   B   0.476325287495595   0.809587683826533   0.111093722691167   1.0000000
B2   B   0.619144314214373   0.952559316846752   0.111005321056880   1.0000000
B2   B   0.618948917219514   0.095565933096027   0.110979917347428   1.0000000
B2   B   0.617847916956273   0.237961213806669   0.111016661940188   1.0000000
B2   B   0.620029920023047   0.524471874934256   0.111063371181090   1.0000000
B2   B   0.619052175454941   0.666213830069930   0.111019708166180   1.0000000
B2   B   0.619195575834960   0.809569706055639   0.111004914838028   1.0000000
B2   B   0.761844538615974   0.952409000554688   0.110997740464235   1.0000000
B2   B   0.761818148700342   0.095384547322842   0.111051391956098   1.0000000
B2   B   0.761649405799970   0.238319169773051   0.111041970546660   1.0000000
B2   B   0.762010479335858   0.382146150882620   0.111016990386191   1.0000000
B2   B   0.762212544860796   0.522593442521720   0.111069702218201   1.0000000
B2   B   0.762738666733143   0.667047311733842   0.111068235440100   1.0000000
B2   B   0.761694688639563   0.809325704609871   0.111005706508843   1.0000000
C2   C   0.384287021916033   0.478637092586529   0.110680423936088   1.0000000
C2   C   0.478005045167411   0.526738644541520   0.110995038332301   1.0000000
C2   C   0.523036132604966   0.478736402667657   0.111031843878898   1.0000000
C2   C   0.618749156871746   0.381276846847790   0.111084811907504   1.0000000
N2   N   0.952309635337725   0.904646695096673   0.111005565062555   1.0000000
N2   N   0.952099602443268   0.047471284822185   0.111007102267549   1.0000000
N2   N   0.952123180041004   0.190554364770008   0.111035673455835   1.0000000
N2   N   0.951766410116227   0.333349826440079   0.110981806122812   1.0000000
N2   N   0.952111380357366   0.476024538031042   0.110973037355075   1.0000000
N2   N   0.952440889002582   0.618904487671810   0.111027946437086   1.0000000
N2   N   0.952167227528444   0.761479526806934   0.111029960751347   1.0000000
N2   N   0.095151886277111   0.904563705373570   0.110961666598377   1.0000000
N2   N   0.094932532858198   0.047178142614190   0.111005901565316   1.0000000
N2   N   0.094882129908310   0.190075290562740   0.110988499780447   1.0000000
N2   N   0.095142110080896   0.333317908740074   0.110977010222976   1.0000000
N2   N   0.094543905119127   0.476108566706305   0.111023504028290   1.0000000
N2   N   0.094963507463946   0.619023685731489   0.111030707843708   1.0000000
N2   N   0.095166549468140   0.761890742067881   0.110969064026148   1.0000000
N2   N   0.238064224116614   0.904658584953080   0.110974423816674   1.0000000
N2   N   0.238342310067973   0.047340477891339   0.111040095627350   1.0000000
N2   N   0.237611678840537   0.189197791898458   0.111050981982768   1.0000000
N2   N   0.238035821008368   0.332426623268849   0.110943368073310   1.0000000
N2   N   0.237005435909256   0.476542551041760   0.110976825816973   1.0000000
N2   N   0.237624677712635   0.619415571993641   0.111103202901368   1.0000000
N2   N   0.237992046031062   0.762129904676637   0.111043734672484   1.0000000
N2   N   0.381133469431340   0.905016797731224   0.111029376988414   1.0000000
N2   N   0.381153136718318   0.047147896979332   0.111039853421855   1.0000000
N2   N   0.382232966450394   0.189842915137509   0.111083893016014   1.0000000
N2   N   0.380430707048458   0.329057941649517   0.111009107668039   1.0000000
N2   N   0.380560608059065   0.621060710443100   0.111042805122943   1.0000000
N2   N   0.381083010324279   0.762949293150805   0.111112732013229   1.0000000
N2   N   0.524039378578331   0.905001088192848   0.111019938382900   1.0000000
N2   N   0.524023829522943   0.047677528229170   0.110972581702073   1.0000000
N2   N   0.523982958804914   0.190012228019619   0.111020299209806   1.0000000
N2   N   0.528331882758300   0.334670541176709   0.111074837664679   1.0000000
N2   N   0.524193981570209   0.619325887808726   0.110992817572011   1.0000000
N2   N   0.524145647916450   0.762187766905985   0.111044547586493   1.0000000
N2   N   0.666780360838994   0.905078617843906   0.110974087062557   1.0000000
N2   N   0.666639798652561   0.048201343091419   0.110978840775227   1.0000000
N2   N   0.666404695338697   0.191743491622307   0.110989125239461   1.0000000
N2   N   0.664249806720420   0.335703633231109   0.111029807717799   1.0000000
N2   N   0.665810428929153   0.471650384166044   0.111067373278883   1.0000000
N2   N   0.668661700603238   0.619358001055854   0.111025305605147   1.0000000
N2   N   0.666683139448846   0.761802043980728   0.110987100543928   1.0000000
N2   N   0.809380626953629   0.904687228710528   0.110975743771579   1.0000000
N2   N   0.809379849984250   0.047826651843316   0.111032885028341   1.0000000
N2   N   0.809113936069365   0.190839115141313   0.111056490036873   1.0000000
N2   N   0.808201845818945   0.333573074692889   0.110991158429182   1.0000000
N2   N   0.809983984209215   0.476039341053314   0.111013901831299   1.0000000
N2   N   0.809121512748207   0.617781563189284   0.111062828496746   1.0000000
N2   N   0.809955149890736   0.762002593074060   0.111033237458206   1.0000000


