data_1
_audit_creation_method   'vasp2cif'
_cell_length_a    14.93631414619966
_cell_length_b    14.936314146199727
_cell_length_c    13.341276283792837
_cell_angle_alpha    90.0
_cell_angle_beta    90.0
_cell_angle_gamma    119.99999999999984

_symmetry_space_group_name_H-M    'P 1'
loop_
_atom_site_label
_atom_site_type_symbol
_atom_site_fract_x
_atom_site_fract_y
_atom_site_fract_z
_atom_site_occupancy
C2   C   0.715417378448285   0.607709621412607   0.375000000000000   1.0000000
C2   C   0.605920315517908   0.554266279619554   0.375000000000000   1.0000000
C2   C   0.442163143294705   0.389144187272050   0.375000000000000   1.0000000
C2   C   0.551782816597380   0.445988768890076   0.375000000000000   1.0000000
N2   N   0.111120306702103   0.055553379336077   0.125159156410981   1.0000000
N2   N   0.611092456682763   0.555577668429068   0.124237636098101   1.0000000
N2   N   0.444437139909434   0.055567624639015   0.125176507926568   1.0000000
N2   N   0.944439677642766   0.555567004185543   0.125186117296427   1.0000000
N2   N   0.777781012662907   0.055559789042693   0.125116000241034   1.0000000
N2   N   0.111099647594910   0.722225349792669   0.624857837291686   1.0000000
N2   N   0.444431184568409   0.722224992727223   0.624776166580047   1.0000000
N2   N   0.277794260456511   0.222236067435562   0.624632615812427   1.0000000
N2   N   0.777768587018241   0.722221096970797   0.624808995679764   1.0000000
N2   N   0.611106323978253   0.222243796209397   0.624773673774935   1.0000000
N2   N   0.944458035615932   0.222232252500442   0.624892539692920   1.0000000
N2   N   0.277765502957889   0.722232468556399   0.125121070257703   1.0000000
N2   N   0.111128489704254   0.222228710537594   0.125182667262330   1.0000000
N2   N   0.444445456113221   0.222252747463377   0.125408815680418   1.0000000
N2   N   0.611102491984744   0.722210678456736   0.125300767647393   1.0000000
N2   N   0.944429155961963   0.722217553217549   0.125294937981961   1.0000000
N2   N   0.777781808166815   0.222234303496910   0.125103092717729   1.0000000
N2   N   0.111106940745448   0.888883956011937   0.624843046582478   1.0000000
N2   N   0.444432755931270   0.888897843050351   0.624881123516468   1.0000000
N2   N   0.277799808751223   0.388905811413546   0.624596431862192   1.0000000
N2   N   0.611112289506776   0.388923224559020   0.624819685865343   1.0000000
N2   N   0.777779668885731   0.888888200512739   0.624820600080641   1.0000000
N2   N   0.944449576036308   0.388905582009824   0.624895569621266   1.0000000
N2   N   0.111119464641208   0.388906336520583   0.125159463627393   1.0000000
N2   N   0.277771892841012   0.888893362182269   0.125120639453153   1.0000000
N2   N   0.611100070072351   0.888886680379222   0.125194997173972   1.0000000
N2   N   0.444442212903180   0.388904776142436   0.124990488043810   1.0000000
N2   N   0.944450820550830   0.888887523907825   0.125175212719946   1.0000000
N2   N   0.777781831218280   0.388904244071194   0.125175324842190   1.0000000
N2   N   0.277770801366238   0.555567141037122   0.624773337475607   1.0000000
N2   N   0.111120306702103   0.055553379336077   0.624840843589018   1.0000000
N2   N   0.611092456682763   0.555577668429068   0.625762363901900   1.0000000
N2   N   0.444437139909434   0.055567624639015   0.624823492073432   1.0000000
N2   N   0.944439677642766   0.555567004185543   0.624813882703573   1.0000000
N2   N   0.111103793145166   0.555568659836391   0.125114016716367   1.0000000
N2   N   0.777781012662907   0.055559789042693   0.624883999758966   1.0000000
N2   N   0.277779839605777   0.055558334407891   0.125218060070177   1.0000000
N2   N   0.444433144199669   0.555548834423912   0.125349253295835   1.0000000
N2   N   0.777761988714880   0.555561935029234   0.125256485977065   1.0000000
N2   N   0.611100389417510   0.055564234301068   0.125126806411369   1.0000000
N2   N   0.444433144199669   0.555548834423912   0.624650746704165   1.0000000
N2   N   0.944458132163827   0.055554669630968   0.125117162214085   1.0000000
N2   N   0.277765502957889   0.722232468556399   0.624878929742297   1.0000000
N2   N   0.111128489704254   0.222228710537594   0.624817332737669   1.0000000
N2   N   0.444445456113221   0.222252747463377   0.624591184319582   1.0000000
N2   N   0.611102491984744   0.722210678456736   0.624699232352607   1.0000000
N2   N   0.944429155961963   0.722217553217549   0.624705062018039   1.0000000
N2   N   0.777781808166815   0.222234303496910   0.624896907282272   1.0000000
N2   N   0.111099647594910   0.722225349792669   0.125142162708314   1.0000000
N2   N   0.444431184568409   0.722224992727223   0.125223833419953   1.0000000
N2   N   0.277794260456511   0.222236067435562   0.125367384187573   1.0000000
N2   N   0.777768587018241   0.722221096970797   0.125191004320236   1.0000000
N2   N   0.611106323978253   0.222243796209397   0.125226326225065   1.0000000
N2   N   0.944458035615932   0.222232252500442   0.125107460307080   1.0000000
N2   N   0.111119464641208   0.388906336520583   0.624840536372608   1.0000000
N2   N   0.277771892841012   0.888893362182269   0.624879360546847   1.0000000
N2   N   0.611100070072351   0.888886680379222   0.624805002826029   1.0000000
N2   N   0.444442212903180   0.388904776142436   0.625009511956190   1.0000000
N2   N   0.944450820550830   0.888887523907825   0.624824787280054   1.0000000
N2   N   0.111106940745448   0.888883956011937   0.125156953417522   1.0000000
N2   N   0.777781831218280   0.388904244071194   0.624824675157810   1.0000000
N2   N   0.444432755931270   0.888897843050351   0.125118876483533   1.0000000
N2   N   0.277799808751223   0.388905811413546   0.125403568137809   1.0000000
N2   N   0.277770801366238   0.555567141037122   0.125226662524392   1.0000000
N2   N   0.611112289506776   0.388923224559020   0.125180314134657   1.0000000
N2   N   0.777779668885731   0.888888200512739   0.125179399919359   1.0000000
N2   N   0.944449576036308   0.388905582009824   0.125104430378734   1.0000000
N2   N   0.111103793145166   0.555568659836391   0.624885983283633   1.0000000
N2   N   0.277779839605777   0.055558334407891   0.624781939929824   1.0000000
N2   N   0.777761988714880   0.555561935029234   0.624743514022935   1.0000000
N2   N   0.611100389417510   0.055564234301068   0.624873193588631   1.0000000
N2   N   0.944458132163827   0.055554669630968   0.624882837785916   1.0000000
N2   N   0.055795301834493   0.111338802099080   0.375000000000000   1.0000000
N2   N   0.555279737827354   0.609779732818854   0.375000000000000   1.0000000
N2   N   0.389543018689896   0.113445573407153   0.375000000000000   1.0000000
N2   N   0.888356447004460   0.609934007445428   0.375000000000000   1.0000000
N2   N   0.722171183262132   0.110708792137987   0.375000000000000   1.0000000
N2   N   0.055554220223400   0.777779090314952   0.875000000000000   1.0000000
N2   N   0.388895101096613   0.777782102026968   0.875000000000000   1.0000000
N2   N   0.222223688482708   0.277780515475682   0.875000000000000   1.0000000
N2   N   0.722221348258334   0.777779285888231   0.875000000000000   1.0000000
N2   N   0.555555534120802   0.277777352326086   0.875000000000000   1.0000000
N2   N   0.888889982420880   0.277777868151409   0.875000000000000   1.0000000
N2   N   0.222295853416450   0.777985707887271   0.375000000000000   1.0000000
N2   N   0.055783931337992   0.277799627878533   0.375000000000000   1.0000000
N2   N   0.390813744851147   0.283540475838222   0.375000000000000   1.0000000
N2   N   0.555375381873467   0.776993769908443   0.375000000000000   1.0000000
N2   N   0.888722285997840   0.778522872344646   0.375000000000000   1.0000000
N2   N   0.722576871583750   0.276414591636182   0.375000000000000   1.0000000
N2   N   0.055554256714607   0.944449703339934   0.875000000000000   1.0000000
N2   N   0.388895462972434   0.944449468254941   0.875000000000000   1.0000000
N2   N   0.222224808104451   0.444443420257159   0.875000000000000   1.0000000
N2   N   0.555553699634694   0.444441817253388   0.875000000000000   1.0000000
N2   N   0.722223316258888   0.944446751775035   0.875000000000000   1.0000000
N2   N   0.888889767417270   0.444443057160372   0.875000000000000   1.0000000
N2   N   0.056355315598139   0.444372966723646   0.375000000000000   1.0000000
N2   N   0.222568562527780   0.945278452979399   0.375000000000000   1.0000000
N2   N   0.555347084800117   0.944027461889480   0.375000000000000   1.0000000
N2   N   0.389364202751397   0.441468990966514   0.375000000000000   1.0000000
N2   N   0.889159414202711   0.945040560234325   0.375000000000000   1.0000000
N2   N   0.723124265389874   0.441481793278121   0.375000000000000   1.0000000
N2   N   0.222223563848121   0.611109218969029   0.875000000000000   1.0000000
N2   N   0.055553594119874   0.111111538186532   0.875000000000000   1.0000000
N2   N   0.555553455320126   0.611111473431778   0.875000000000000   1.0000000
N2   N   0.388893940837816   0.111115570093060   0.875000000000000   1.0000000
N2   N   0.888888270297152   0.611108824880351   0.875000000000000   1.0000000
N2   N   0.055955772061396   0.611020607558977   0.375000000000000   1.0000000
N2   N   0.722221811786985   0.111110484910392   0.875000000000000   1.0000000
N2   N   0.223564827418976   0.112938524412907   0.375000000000000   1.0000000
N2   N   0.389288393996264   0.609860278518481   0.375000000000000   1.0000000
N2   N   0.555527933024360   0.110756671927816   0.375000000000000   1.0000000
N2   N   0.388893772706557   0.611111340779314   0.875000000000000   1.0000000
N2   N   0.889059437427180   0.111173785512113   0.375000000000000   1.0000000
N2   N   0.222224643608953   0.777779683159906   0.875000000000000   1.0000000
N2   N   0.055555336605909   0.277776665413139   0.875000000000000   1.0000000
N2   N   0.388891621744845   0.277781528396151   0.875000000000000   1.0000000
N2   N   0.555559420128330   0.777779492470867   0.875000000000000   1.0000000
N2   N   0.888888317799506   0.777780955525177   0.875000000000000   1.0000000
N2   N   0.722221525722384   0.277776217199812   0.875000000000000   1.0000000
N2   N   0.055027312208956   0.777667542409722   0.375000000000000   1.0000000
N2   N   0.388987262442964   0.777466584869302   0.375000000000000   1.0000000
N2   N   0.221813770343639   0.277694873556187   0.375000000000000   1.0000000
N2   N   0.722345850528366   0.779971690243059   0.375000000000000   1.0000000
N2   N   0.556354396631729   0.277621382559267   0.375000000000000   1.0000000
N2   N   0.889301621176977   0.277483301271540   0.375000000000000   1.0000000
N2   N   0.055554917913500   0.444442653963074   0.875000000000000   1.0000000
N2   N   0.222224465992104   0.944449858250605   0.875000000000000   1.0000000
N2   N   0.555558931069277   0.944447756615105   0.875000000000000   1.0000000
N2   N   0.388892859682430   0.444447493228686   0.875000000000000   1.0000000
N2   N   0.888889265019799   0.944447419756501   0.875000000000000   1.0000000
N2   N   0.056214337975632   0.945336165863597   0.375000000000000   1.0000000
N2   N   0.722219699114822   0.444442268511229   0.875000000000000   1.0000000
N2   N   0.388976745711145   0.945041083345724   0.375000000000000   1.0000000
N2   N   0.223064552518481   0.444248803608579   0.375000000000000   1.0000000
N2   N   0.222776608493015   0.610988100555848   0.375000000000000   1.0000000
N2   N   0.722052816022055   0.945002276923040   0.375000000000000   1.0000000
N2   N   0.889791072053002   0.443869524010713   0.375000000000000   1.0000000
N2   N   0.055554667646125   0.611107514396383   0.875000000000000   1.0000000
N2   N   0.222222200660596   0.111116030596650   0.875000000000000   1.0000000
N2   N   0.722220870146369   0.611110030356214   0.875000000000000   1.0000000
N2   N   0.555557083778862   0.111110254311836   0.875000000000000   1.0000000
N2   N   0.888889557665600   0.111110502489663   0.875000000000000   1.0000000
B2   B   0.111657615743340   0.056299067420353   0.375000000000000   1.0000000
B2   B   0.444643690968522   0.056248748062004   0.375000000000000   1.0000000
B2   B   0.944950569894028   0.555014942054028   0.375000000000000   1.0000000
B2   B   0.777928091802065   0.055861174444235   0.375000000000000   1.0000000
B2   B   0.111111150029124   0.722219646991857   0.875000000000000   1.0000000
B2   B   0.444448798807883   0.722250471773272   0.875000000000000   1.0000000
B2   B   0.277756343294393   0.222201016413325   0.875000000000000   1.0000000
B2   B   0.777799266128784   0.722245582860975   0.875000000000000   1.0000000
B2   B   0.611129296130162   0.222206384271963   0.875000000000000   1.0000000
B2   B   0.944425205648405   0.222214508142402   0.875000000000000   1.0000000
B2   B   0.277813854147133   0.722290058303872   0.375000000000000   1.0000000
B2   B   0.110077538986721   0.221710804845696   0.375000000000000   1.0000000
B2   B   0.446373962780299   0.224214175077911   0.375000000000000   1.0000000
B2   B   0.612064201108801   0.723458998088624   0.375000000000000   1.0000000
B2   B   0.943741754099054   0.721815768768025   0.375000000000000   1.0000000
B2   B   0.778257594249025   0.221401521533393   0.375000000000000   1.0000000
B2   B   0.111107423675006   0.888884050858322   0.875000000000000   1.0000000
B2   B   0.444453560835031   0.888900646681629   0.875000000000000   1.0000000
B2   B   0.277751327078428   0.388884621108223   0.875000000000000   1.0000000
B2   B   0.611132918188230   0.388880949106938   0.875000000000000   1.0000000
B2   B   0.777788520139182   0.888914759176240   0.875000000000000   1.0000000
B2   B   0.944438107659710   0.388881046446875   0.875000000000000   1.0000000
B2   B   0.111272795594641   0.388665867635590   0.375000000000000   1.0000000
B2   B   0.277848347249612   0.889224811183360   0.375000000000000   1.0000000
B2   B   0.611078165633668   0.888918807699627   0.375000000000000   1.0000000
B2   B   0.945042434913056   0.889835309217804   0.375000000000000   1.0000000
B2   B   0.779060060044369   0.386881484230956   0.375000000000000   1.0000000
B2   B   0.277761336923974   0.555566555245485   0.875000000000000   1.0000000
B2   B   0.111089222287723   0.055541946572655   0.875000000000000   1.0000000
B2   B   0.611127357603149   0.555566074342304   0.875000000000000   1.0000000
B2   B   0.444455354739094   0.055542932651410   0.875000000000000   1.0000000
B2   B   0.944453846591314   0.555550465487653   0.875000000000000   1.0000000
B2   B   0.111496545423620   0.555492510467560   0.375000000000000   1.0000000
B2   B   0.777779880649069   0.055565300128072   0.875000000000000   1.0000000
B2   B   0.278208499673955   0.056347581767002   0.375000000000000   1.0000000
B2   B   0.444376280692520   0.554864134795347   0.375000000000000   1.0000000
B2   B   0.777689647012909   0.551295272502088   0.375000000000000   1.0000000
B2   B   0.611150184296206   0.055112932257918   0.375000000000000   1.0000000
B2   B   0.444446331692075   0.555579264238290   0.875000000000000   1.0000000
B2   B   0.944588500527295   0.055901865906524   0.375000000000000   1.0000000
B2   B   0.277775015816177   0.722231374042938   0.875000000000000   1.0000000
B2   B   0.111075057889677   0.222204983102150   0.875000000000000   1.0000000
B2   B   0.444453894887266   0.222201168130466   0.875000000000000   1.0000000
B2   B   0.611126710586093   0.722255280106879   0.875000000000000   1.0000000
B2   B   0.944456232941534   0.722226339372424   0.875000000000000   1.0000000
B2   B   0.777784255027430   0.222216114486609   0.875000000000000   1.0000000
B2   B   0.111050624475343   0.722232755449262   0.375000000000000   1.0000000
B2   B   0.444338590161616   0.721869773171805   0.375000000000000   1.0000000
B2   B   0.277216442925876   0.223232949665188   0.375000000000000   1.0000000
B2   B   0.778155880617174   0.725986429008341   0.375000000000000   1.0000000
B2   B   0.611862194957198   0.221253149897535   0.375000000000000   1.0000000
B2   B   0.944507722484447   0.222051196114877   0.375000000000000   1.0000000
B2   B   0.111081241977161   0.388881086026417   0.875000000000000   1.0000000
B2   B   0.277779804759893   0.888884821539645   0.875000000000000   1.0000000
B2   B   0.611123328045500   0.888915610988256   0.875000000000000   1.0000000
B2   B   0.444452235417576   0.388886395535201   0.875000000000000   1.0000000
B2   B   0.944446495443792   0.888898347463215   0.875000000000000   1.0000000
B2   B   0.111170425680775   0.889159222256925   0.375000000000000   1.0000000
B2   B   0.777794630690346   0.388879014776162   0.875000000000000   1.0000000
B2   B   0.444334625142916   0.888953793994727   0.375000000000000   1.0000000
B2   B   0.275859908694577   0.387219802338993   0.375000000000000   1.0000000
B2   B   0.277890057758113   0.555420388841074   0.375000000000000   1.0000000
B2   B   0.612907444406687   0.387650357607916   0.375000000000000   1.0000000
B2   B   0.778333466458333   0.891004855101566   0.375000000000000   1.0000000
B2   B   0.945249229555268   0.388480304247335   0.375000000000000   1.0000000
B2   B   0.111098795063777   0.555553666364290   0.875000000000000   1.0000000
B2   B   0.277771742308168   0.055537237197732   0.875000000000000   1.0000000
B2   B   0.777802292386358   0.555555361465372   0.875000000000000   1.0000000
B2   B   0.611123068974288   0.055557221112705   0.875000000000000   1.0000000
B2   B   0.944430025517251   0.055555686590806   0.875000000000000   1.0000000
B2   B   0.055512733817489   0.111057448600923   0.124873790952910   1.0000000
B2   B   0.555613572263780   0.611169663558254   0.124306908641426   1.0000000
B2   B   0.388858005927115   0.111013791292649   0.124926214034482   1.0000000
B2   B   0.888960099474720   0.611138374589350   0.125013072302884   1.0000000
B2   B   0.722229514913671   0.111125200402387   0.124910820287397   1.0000000
B2   B   0.055576627444690   0.777774605610998   0.625014083107823   1.0000000
B2   B   0.388839055569759   0.777826963985207   0.625098510644136   1.0000000
B2   B   0.222121104768927   0.277712138054811   0.625204807230498   1.0000000
B2   B   0.722289527480736   0.777861783709250   0.625165795106890   1.0000000
B2   B   0.555620581581847   0.277762095325799   0.625123425950957   1.0000000
B2   B   0.888890216661981   0.277795425579749   0.625096145719988   1.0000000
B2   B   0.222190405934833   0.777783145846041   0.124920797977488   1.0000000
B2   B   0.055496777776447   0.277777207688030   0.124869439697428   1.0000000
B2   B   0.388875477648829   0.277730259272047   0.124540407495164   1.0000000
B2   B   0.555542594204916   0.777858524056629   0.124911505422817   1.0000000
B2   B   0.888959708332607   0.777814841008706   0.124983146118239   1.0000000
B2   B   0.722272563399262   0.277786282972092   0.124920248315130   1.0000000
B2   B   0.055550230155422   0.944401657469375   0.625069754129662   1.0000000
B2   B   0.388855081436471   0.944418856465058   0.625091844145223   1.0000000
B2   B   0.222128439235127   0.444489233893941   0.625134992665630   1.0000000
B2   B   0.555644228360240   0.444506057325263   0.625701280408778   1.0000000
B2   B   0.722237128566573   0.944491029567623   0.625082052690549   1.0000000
B2   B   0.888925639280844   0.444467939251599   0.625060984710929   1.0000000
B2   B   0.055518661808795   0.444480963924627   0.124896288527470   1.0000000
B2   B   0.222189431927393   0.944374368886618   0.124923446856257   1.0000000
B2   B   0.555535392068663   0.944472125903021   0.124916129496119   1.0000000
B2   B   0.388860271963164   0.444452997943477   0.124407717406569   1.0000000
B2   B   0.888920218951214   0.944460797320789   0.124908442813235   1.0000000
B2   B   0.722311071118763   0.444452971659126   0.124906043196607   1.0000000
B2   B   0.222157319110609   0.611165053447512   0.625104953854911   1.0000000
B2   B   0.055512733817489   0.111057448600923   0.625126209047090   1.0000000
B2   B   0.555613572263780   0.611169663558254   0.625693091358573   1.0000000
B2   B   0.388858005927115   0.111013791292649   0.625073785965518   1.0000000
B2   B   0.888960099474720   0.611138374589350   0.624986927697116   1.0000000
B2   B   0.055552318229393   0.611137361968851   0.124947485504531   1.0000000
B2   B   0.722229514913671   0.111125200402387   0.625089179712603   1.0000000
B2   B   0.222154436793502   0.110993554651470   0.124890431653840   1.0000000
B2   B   0.388824610212905   0.611191920462869   0.124863215982552   1.0000000
B2   B   0.722268131618133   0.611139976272529   0.124459531157519   1.0000000
B2   B   0.555559080624078   0.111088211277740   0.124922353109868   1.0000000
B2   B   0.388824610212905   0.611191920462869   0.625136784017448   1.0000000
B2   B   0.888882298041946   0.111117244987678   0.124900466629768   1.0000000
B2   B   0.222190405934833   0.777783145846041   0.625079202022512   1.0000000
B2   B   0.055496777776447   0.277777207688030   0.625130560302573   1.0000000
B2   B   0.388875477648829   0.277730259272047   0.625459592504836   1.0000000
B2   B   0.555542594204916   0.777858524056629   0.625088494577184   1.0000000
B2   B   0.888959708332607   0.777814841008706   0.625016853881761   1.0000000
B2   B   0.722272563399262   0.277786282972092   0.625079751684870   1.0000000
B2   B   0.055576627444690   0.777774605610998   0.124985916892176   1.0000000
B2   B   0.388839055569759   0.777826963985207   0.124901489355863   1.0000000
B2   B   0.222121104768927   0.277712138054811   0.124795192769502   1.0000000
B2   B   0.722289527480736   0.777861783709250   0.124834204893110   1.0000000
B2   B   0.555620581581847   0.277762095325799   0.124876574049042   1.0000000
B2   B   0.888890216661981   0.277795425579749   0.124903854280013   1.0000000
B2   B   0.055518661808795   0.444480963924627   0.625103711472530   1.0000000
B2   B   0.222189431927393   0.944374368886618   0.625076553143742   1.0000000
B2   B   0.555535392068663   0.944472125903021   0.625083870503882   1.0000000
B2   B   0.388860271963164   0.444452997943477   0.625592282593431   1.0000000
B2   B   0.888920218951214   0.944460797320789   0.625091557186766   1.0000000
B2   B   0.055550230155422   0.944401657469375   0.124930245870338   1.0000000
B2   B   0.722311071118763   0.444452971659126   0.625093956803393   1.0000000
B2   B   0.388855081436471   0.944418856465058   0.124908155854778   1.0000000
B2   B   0.222128439235127   0.444489233893941   0.124865007334370   1.0000000
B2   B   0.222157319110609   0.611165053447512   0.124895046145089   1.0000000
B2   B   0.555644228360240   0.444506057325263   0.124298719591222   1.0000000
B2   B   0.722237128566573   0.944491029567623   0.124917947309451   1.0000000
B2   B   0.888925639280844   0.444467939251599   0.124939015289072   1.0000000
B2   B   0.055552318229393   0.611137361968851   0.625052514495469   1.0000000
B2   B   0.222154436793502   0.110993554651470   0.625109568346159   1.0000000
B2   B   0.722268131618133   0.611139976272529   0.625540468842481   1.0000000
B2   B   0.555559080624078   0.111088211277740   0.625077646890133   1.0000000
B2   B   0.888882298041946   0.111117244987678   0.625099533370232   1.0000000


