data_1
_audit_creation_method   'vasp2cif'
_cell_length_a    14.93631414619966
_cell_length_b    14.936314146199727
_cell_length_c    13.341276283792837
_cell_angle_alpha    90.0
_cell_angle_beta    90.0
_cell_angle_gamma    119.99999999999984

_symmetry_space_group_name_H-M    'P 1'
loop_
_atom_site_label
_atom_site_type_symbol
_atom_site_fract_x
_atom_site_fract_y
_atom_site_fract_z
_atom_site_occupancy
Ge2   Ge   0.506664508580709   0.419998920957019   0.375000000000000   1.0000000
N2   N   0.111055902741761   0.055533788269119   0.124869602613554   1.0000000
N2   N   0.611333746465668   0.555896156771633   0.124585205160082   1.0000000
N2   N   0.444504961667278   0.055581780875800   0.124804011238479   1.0000000
N2   N   0.944449175730507   0.555535957730775   0.124719010576657   1.0000000
N2   N   0.777834346340349   0.055583839836838   0.124843772070583   1.0000000
N2   N   0.111120105047042   0.722226719190197   0.625114780174077   1.0000000
N2   N   0.444504961667278   0.722256514124811   0.625195988761523   1.0000000
N2   N   0.277595596239639   0.222121241093617   0.625620725146980   1.0000000
N2   N   0.777848320307355   0.722364565760330   0.625713751084339   1.0000000
N2   N   0.611201779493333   0.222163801273674   0.625701738098386   1.0000000
N2   N   0.944435086568802   0.222197619559988   0.625080378683658   1.0000000
N2   N   0.277815608703463   0.722234240936843   0.124923500941706   1.0000000
N2   N   0.110998023162771   0.222165678248049   0.124808713363963   1.0000000
N2   N   0.444487168211587   0.222242994981184   0.124839208600803   1.0000000
N2   N   0.611201779493333   0.722371311552987   0.124298261901616   1.0000000
N2   N   0.944449175730507   0.722246551333063   0.124719010576657   1.0000000
N2   N   0.777841486228605   0.222176802483406   0.124704907848525   1.0000000
N2   N   0.111118009190292   0.888909028203836   0.625127574238992   1.0000000
N2   N   0.444506269184931   0.888919801259132   0.625120437892757   1.0000000
N2   N   0.277595596239639   0.388807688479349   0.625620725146980   1.0000000
N2   N   0.611333746465668   0.388770923027365   0.625414794839921   1.0000000
N2   N   0.777841486228605   0.888998017078515   0.625295092151473   1.0000000
N2   N   0.944456532900730   0.388855363848409   0.625162322789393   1.0000000
N2   N   0.111055902741761   0.388855447805972   0.124869602613554   1.0000000
N2   N   0.277815608703463   0.888914701099947   0.124923500941706   1.0000000
N2   N   0.611183899043369   0.888958500922151   0.124768283839807   1.0000000
N2   N   0.443972618771378   0.388652976052353   0.124560967488227   1.0000000
N2   N   0.944456532900730   0.888934502385652   0.124837677210616   1.0000000
N2   N   0.777848320307355   0.388817087880353   0.124286248915660   1.0000000
N2   N   0.277796770271944   0.555552260993217   0.625181045177784   1.0000000
N2   N   0.111055902741761   0.055533788269119   0.625130397386445   1.0000000
N2   N   0.611333746465668   0.555896156771633   0.625414794839921   1.0000000
N2   N   0.444504961667278   0.055581780875800   0.625195988761523   1.0000000
N2   N   0.944449175730507   0.555535957730775   0.625280989423341   1.0000000
N2   N   0.111118009190292   0.555542314319790   0.124872425761012   1.0000000
N2   N   0.777834346340349   0.055583839836838   0.625156227929415   1.0000000
N2   N   0.277796770271944   0.055577842612063   0.124818954822217   1.0000000
N2   N   0.444487168211587   0.555577506563736   0.124839208600803   1.0000000
N2   N   0.777820147416378   0.555576740374854   0.124631484376722   1.0000000
N2   N   0.611183899043369   0.055558731454547   0.124768283839807   1.0000000
N2   N   0.444487168211587   0.555577506563736   0.625160791399194   1.0000000
N2   N   0.944435086568802   0.055570800342144   0.124919621316347   1.0000000
N2   N   0.277815608703463   0.722234240936843   0.625076499058289   1.0000000
N2   N   0.110998023162771   0.222165678248049   0.625191286636026   1.0000000
N2   N   0.444487168211587   0.222242994981184   0.625160791399194   1.0000000
N2   N   0.611201779493333   0.722371311552987   0.625701738098386   1.0000000
N2   N   0.944449175730507   0.722246551333063   0.625280989423341   1.0000000
N2   N   0.777841486228605   0.222176802483406   0.625295092151473   1.0000000
N2   N   0.111120105047042   0.722226719190197   0.124885219825921   1.0000000
N2   N   0.444504961667278   0.722256514124811   0.124804011238479   1.0000000
N2   N   0.277595596239639   0.222121241093617   0.124379274853027   1.0000000
N2   N   0.777848320307355   0.722364565760330   0.124286248915660   1.0000000
N2   N   0.611201779493333   0.222163801273674   0.124298261901616   1.0000000
N2   N   0.944435086568802   0.222197619559988   0.124919621316347   1.0000000
N2   N   0.111055902741761   0.388855447805972   0.625130397386445   1.0000000
N2   N   0.277815608703463   0.888914701099947   0.625076499058289   1.0000000
N2   N   0.611183899043369   0.888958500922151   0.625231716160191   1.0000000
N2   N   0.443972618771381   0.388652976052353   0.625439032511772   1.0000000
N2   N   0.944456532900730   0.888934502385652   0.625162322789393   1.0000000
N2   N   0.111118009190292   0.888909028203836   0.124872425761012   1.0000000
N2   N   0.777848320307355   0.388817087880353   0.625713751084339   1.0000000
N2   N   0.444506269184931   0.888919801259132   0.124879562107244   1.0000000
N2   N   0.277595596239639   0.388807688479349   0.124379274853027   1.0000000
N2   N   0.277796770271944   0.555552260993217   0.124818954822217   1.0000000
N2   N   0.611333746465668   0.388770923027365   0.124585205160082   1.0000000
N2   N   0.777841486228605   0.888998017078515   0.124704907848525   1.0000000
N2   N   0.944456532900730   0.388855363848409   0.124837677210616   1.0000000
N2   N   0.111118009190292   0.555542314319790   0.625127574238992   1.0000000
N2   N   0.277796770271944   0.055577842612063   0.625181045177784   1.0000000
N2   N   0.777820147416378   0.555576740374854   0.625368515623276   1.0000000
N2   N   0.611183899043369   0.055558731454547   0.625231716160191   1.0000000
N2   N   0.944435086568802   0.055570800342144   0.625080378683658   1.0000000
N2   N   0.057674711687877   0.112376062743508   0.375000000000000   1.0000000
N2   N   0.554270205129224   0.622421425633606   0.375000000000000   1.0000000
N2   N   0.386300205640115   0.104228861417786   0.375000000000000   1.0000000
N2   N   0.883825173619603   0.608579253476480   0.375000000000000   1.0000000
N2   N   0.722997993465081   0.110374375858447   0.375000000000000   1.0000000
N2   N   0.055583532431281   0.777787993080032   0.875000000000000   1.0000000
N2   N   0.388885494738295   0.777786078241272   0.875000000000000   1.0000000
N2   N   0.222244191035036   0.277788762184182   0.875000000000000   1.0000000
N2   N   0.722224578075042   0.777766356996022   0.875000000000000   1.0000000
N2   N   0.555544009084146   0.277766594949356   0.875000000000000   1.0000000
N2   N   0.888898422065030   0.277792705072406   0.875000000000000   1.0000000
N2   N   0.218705828953156   0.776019581143251   0.375000000000000   1.0000000
N2   N   0.057674711687877   0.278631982277704   0.375000000000000   1.0000000
N2   N   0.391474254833409   0.272050931223300   0.375000000000000   1.0000000
N2   N   0.554409465309819   0.782441664177200   0.375000000000000   1.0000000
N2   N   0.887045653898363   0.777464971833299   0.375000000000000   1.0000000
N2   N   0.722578725866877   0.275032479853385   0.375000000000000   1.0000000
N2   N   0.055568157497701   0.944440844816924   0.875000000000000   1.0000000
N2   N   0.388885494738295   0.944432749830372   0.875000000000000   1.0000000
N2   N   0.222231355356827   0.444464124608071   0.875000000000000   1.0000000
N2   N   0.555561157233493   0.444447245283411   0.875000000000000   1.0000000
N2   N   0.722220571396085   0.944438441104349   0.875000000000000   1.0000000
N2   N   0.888913068673596   0.444466821850319   0.875000000000000   1.0000000
N2   N   0.054728372206047   0.444205604681305   0.375000000000000   1.0000000
N2   N   0.219205034605473   0.941416666559901   0.375000000000000   1.0000000
N2   N   0.554489015892314   0.943911174612821   0.375000000000000   1.0000000
N2   N   0.391474254833409   0.452756656943450   0.375000000000000   1.0000000
N2   N   0.890004944958022   0.945878212472210   0.375000000000000   1.0000000
N2   N   0.718245092427639   0.440136510569771   0.375000000000000   1.0000000
N2   N   0.222223656154056   0.611126504538526   0.875000000000000   1.0000000
N2   N   0.055570215501155   0.111113381465457   0.875000000000000   1.0000000
N2   N   0.555544009084146   0.611110747468116   0.875000000000000   1.0000000
N2   N   0.388880897692781   0.111083859326487   0.875000000000000   1.0000000
N2   N   0.888940333225963   0.611136833279649   0.875000000000000   1.0000000
N2   N   0.051923900383800   0.609658649704758   0.375000000000000   1.0000000
N2   N   0.722220571396085   0.111115463625075   0.875000000000000   1.0000000
N2   N   0.222534761076617   0.110003668864830   0.375000000000000   1.0000000
N2   N   0.386300205640115   0.615404677555673   0.375000000000000   1.0000000
N2   N   0.718245092427639   0.611441915191200   0.375000000000000   1.0000000
N2   N   0.554409465309819   0.105301134465957   0.375000000000000   1.0000000
N2   N   0.388880897692781   0.611130371699634   0.875000000000000   1.0000000
N2   N   0.890668801806868   0.112001067570106   0.375000000000000   1.0000000
N2   N   0.222232216380264   0.777782774856796   0.875000000000000   1.0000000
N2   N   0.055570215501155   0.277790167369037   0.875000000000000   1.0000000
N2   N   0.388900025930338   0.277760119683157   0.875000000000000   1.0000000
N2   N   0.555547354452392   0.777775949055535   0.875000000000000   1.0000000
N2   N   0.888913068673596   0.777779580156616   0.875000000000000   1.0000000
N2   N   0.722224578075042   0.277791554412360   0.875000000000000   1.0000000
N2   N   0.051923900383800   0.775598584012370   0.375000000000000   1.0000000
N2   N   0.386159482768469   0.778265227580387   0.375000000000000   1.0000000
N2   N   0.226217852855057   0.279775593094198   0.375000000000000   1.0000000
N2   N   0.722578725866877   0.780879579346830   0.375000000000000   1.0000000
N2   N   0.554270205129224   0.265182112828954   0.375000000000000   1.0000000
N2   N   0.890004944958022   0.277460065819136   0.375000000000000   1.0000000
N2   N   0.055568157497701   0.444460646014107   0.875000000000000   1.0000000
N2   N   0.222223656154056   0.944430484948858   0.875000000000000   1.0000000
N2   N   0.555549334681223   0.944441334007283   0.875000000000000   1.0000000
N2   N   0.388900025930338   0.444473239580516   0.875000000000000   1.0000000
N2   N   0.888898422065030   0.944439050325958   0.875000000000000   1.0000000
N2   N   0.054728372206047   0.943856100858075   0.375000000000000   1.0000000
N2   N   0.722254855893870   0.444474010346447   0.875000000000000   1.0000000
N2   N   0.386159482768469   0.941227588521411   0.375000000000000   1.0000000
N2   N   0.222534761076617   0.445864425545121   0.375000000000000   1.0000000
N2   N   0.219205034605473   0.611121701378903   0.375000000000000   1.0000000
N2   N   0.722997993465081   0.945956950939961   0.375000000000000   1.0000000
N2   N   0.887045653898363   0.442914015398396   0.375000000000000   1.0000000
N2   N   0.055583532431281   0.611128872684576   0.875000000000000   1.0000000
N2   N   0.222231355356826   0.111100564082090   0.875000000000000   1.0000000
N2   N   0.722254855893870   0.611114178880762   0.875000000000000   1.0000000
N2   N   0.555547354452392   0.111104738730194   0.875000000000000   1.0000000
N2   N   0.888897300243456   0.111115316788400   0.875000000000000   1.0000000
B2   B   0.112298215975710   0.055739584472760   0.375000000000000   1.0000000
B2   B   0.605045239858113   0.563513491330982   0.375000000000000   1.0000000
B2   B   0.442980238731718   0.051489958315583   0.375000000000000   1.0000000
B2   B   0.940305496253570   0.553876973700634   0.375000000000000   1.0000000
B2   B   0.779382012942208   0.056357673137774   0.375000000000000   1.0000000
B2   B   0.111112307953933   0.722222820643636   0.875000000000000   1.0000000
B2   B   0.444437732517232   0.722151124515832   0.875000000000000   1.0000000
B2   B   0.277937562564496   0.222325481238276   0.875000000000000   1.0000000
B2   B   0.777697223762126   0.722078695882841   0.875000000000000   1.0000000
B2   B   0.611049654758902   0.222320221667052   0.875000000000000   1.0000000
B2   B   0.944483240298843   0.222261329549744   0.875000000000000   1.0000000
B2   B   0.275046378280718   0.721675694883942   0.375000000000000   1.0000000
B2   B   0.115719874830149   0.224526604081740   0.375000000000000   1.0000000
B2   B   0.442723479645564   0.215168886798605   0.375000000000000   1.0000000
B2   B   0.610963248170094   0.728968869966977   0.375000000000000   1.0000000
B2   B   0.940305496253570   0.719761855886264   0.375000000000000   1.0000000
B2   B   0.778783944356341   0.221472648711215   0.375000000000000   1.0000000
B2   B   0.111133970516009   0.888896922220286   0.875000000000000   1.0000000
B2   B   0.444430424963005   0.888881879148165   0.875000000000000   1.0000000
B2   B   0.277937562564496   0.388945414659546   0.875000000000000   1.0000000
B2   B   0.611032237661649   0.388959003412762   0.875000000000000   1.0000000
B2   B   0.777738498747793   0.888792018966438   0.875000000000000   1.0000000
B2   B   0.944440767558056   0.388932800333883   0.875000000000000   1.0000000
B2   B   0.112298215975710   0.389891964836276   0.375000000000000   1.0000000
B2   B   0.275046378280718   0.886704016730107   0.375000000000000   1.0000000
B2   B   0.611384029239424   0.891172744500956   0.375000000000000   1.0000000
B2   B   0.943734305037441   0.888586700677235   0.375000000000000   1.0000000
B2   B   0.775246620538795   0.386805935846987   0.375000000000000   1.0000000
B2   B   0.277843382983283   0.555550998439285   0.875000000000000   1.0000000
B2   B   0.111196765789548   0.055599583256726   0.875000000000000   1.0000000
B2   B   0.611032237661649   0.555406567582211   0.875000000000000   1.0000000
B2   B   0.444437732517232   0.055619941334734   0.875000000000000   1.0000000
B2   B   0.944411361259065   0.555568415390822   0.875000000000000   1.0000000
B2   B   0.108477857231082   0.555030810035290   0.375000000000000   1.0000000
B2   B   0.777762340146547   0.055547836739940   0.875000000000000   1.0000000
B2   B   0.276085680910500   0.052743851326829   0.375000000000000   1.0000000
B2   B   0.442723479645564   0.560887926180284   0.375000000000000   1.0000000
B2   B   0.770349051609571   0.551841192471447   0.375000000000000   1.0000000
B2   B   0.611384029239424   0.053544618071796   0.375000000000000   1.0000000
B2   B   0.444486566440172   0.555485337284626   0.875000000000000   1.0000000
B2   B   0.946765042049060   0.057008890447371   0.375000000000000   1.0000000
B2   B   0.277792308053515   0.722212417418660   0.875000000000000   1.0000000
B2   B   0.111242245963474   0.222287789648402   0.875000000000000   1.0000000
B2   B   0.444486566440172   0.222334562488886   0.875000000000000   1.0000000
B2   B   0.611049654758902   0.722062766425177   0.875000000000000   1.0000000
B2   B   0.944411361259065   0.722176279201579   0.875000000000000   1.0000000
B2   B   0.777738498747793   0.222279813114683   0.875000000000000   1.0000000
B2   B   0.107555846140733   0.720444589737023   0.375000000000000   1.0000000
B2   B   0.442980238731718   0.724823613749478   0.375000000000000   1.0000000
B2   B   0.283448771721118   0.223799397984649   0.375000000000000   1.0000000
B2   B   0.775246620538795   0.721774018025129   0.375000000000000   1.0000000
B2   B   0.610963248170094   0.215327711536439   0.375000000000000   1.0000000
B2   B   0.946765042049060   0.223089484935026   0.375000000000000   1.0000000
B2   B   0.111196765789548   0.388930515866150   0.875000000000000   1.0000000
B2   B   0.277792308053515   0.888913223968173   0.875000000000000   1.0000000
B2   B   0.611074066600077   0.888823116126112   0.875000000000000   1.0000000
B2   B   0.444568273413764   0.388950803373547   0.875000000000000   1.0000000
B2   B   0.944440767558056   0.888841300557502   0.875000000000000   1.0000000
B2   B   0.108477857231082   0.886780380529117   0.375000000000000   1.0000000
B2   B   0.777697223762126   0.388951861212614   0.875000000000000   1.0000000
B2   B   0.442940420483787   0.888136876908556   0.375000000000000   1.0000000
B2   B   0.283448771721118   0.392982707069796   0.375000000000000   1.0000000
B2   B   0.276085680910500   0.556675162917011   0.375000000000000   1.0000000
B2   B   0.605045239858113   0.374865081860456   0.375000000000000   1.0000000
B2   B   0.778783944356341   0.890644628978457   0.375000000000000   1.0000000
B2   B   0.943734305037441   0.388480937693532   0.375000000000000   1.0000000
B2   B   0.111133970516009   0.555570381629049   0.875000000000000   1.0000000
B2   B   0.277843382983283   0.055625717877337   0.875000000000000   1.0000000
B2   B   0.777689247905479   0.555511290619406   0.875000000000000   1.0000000
B2   B   0.611074066600077   0.055584283807288   0.875000000000000   1.0000000
B2   B   0.944483240298843   0.055555244082437   0.875000000000000   1.0000000
B2   B   0.055629344146937   0.111194327889786   0.125282337043282   1.0000000
B2   B   0.555708942787746   0.610836166341044   0.125592217560030   1.0000000
B2   B   0.389122867804205   0.111568081394839   0.125417144951667   1.0000000
B2   B   0.888505144737226   0.610919239035284   0.125123977897914   1.0000000
B2   B   0.722261135631767   0.111155398813225   0.125109062673863   1.0000000
B2   B   0.055447080268370   0.777760326583884   0.624858517221920   1.0000000
B2   B   0.389024431498130   0.777730232095769   0.624786468608700   1.0000000
B2   B   0.222382592913932   0.277857963123633   0.624717831749307   1.0000000
B2   B   0.722146263204882   0.777666727399548   0.625071314668355   1.0000000
B2   B   0.555708942787746   0.278206109780032   0.624407782439966   1.0000000
B2   B   0.888870154096247   0.277754056865951   0.624836783076535   1.0000000
B2   B   0.222269325686236   0.777801329509789   0.125205477874160   1.0000000
B2   B   0.055629344146937   0.277768349590488   0.125282337043282   1.0000000
B2   B   0.389040724762521   0.278166732153966   0.125951763103945   1.0000000
B2   B   0.555659157133131   0.777666234032012   0.125062737011091   1.0000000
B2   B   0.888693347411942   0.777688635320218   0.124989838501940   1.0000000
B2   B   0.722146263204882   0.277812869138663   0.124928685331644   1.0000000
B2   B   0.055561597764932   0.944527671192570   0.624770287371682   1.0000000
B2   B   0.389024431498130   0.944627532735687   0.624786468608700   1.0000000
B2   B   0.222370730509538   0.444331094782932   0.624734581767152   1.0000000
B2   B   0.555356049620513   0.444344691476921   0.617497665642489   1.0000000
B2   B   0.722261135631767   0.944439070151886   0.624890937326137   1.0000000
B2   B   0.888693347411942   0.444338045425054   0.625010161498053   1.0000000
B2   B   0.055561597764932   0.444367259905688   0.125229712628317   1.0000000
B2   B   0.222330645128859   0.944656089135344   0.125228450241658   1.0000000
B2   B   0.555653620222272   0.944493476777802   0.125151329497541   1.0000000
B2   B   0.389040724762521   0.444207325941885   0.125951763103945   1.0000000
B2   B   0.888870154096247   0.944449430563639   0.125163216923466   1.0000000
B2   B   0.721740496581746   0.444216509201639   0.125228309664623   1.0000000
B2   B   0.222330645128859   0.611007889326855   0.624771549758338   1.0000000
B2   B   0.055629344146937   0.111194327889786   0.624717662956717   1.0000000
B2   B   0.555708942787746   0.610836166341044   0.624407782439966   1.0000000
B2   B   0.389122867804209   0.111568081394839   0.624582855048334   1.0000000
B2   B   0.888505144737226   0.610919239035284   0.624876022102083   1.0000000
B2   B   0.055447080268370   0.611020087017821   0.125141482778085   1.0000000
B2   B   0.722261135631767   0.111155398813225   0.624890937326137   1.0000000
B2   B   0.222370730509538   0.111372969059942   0.125265418232837   1.0000000
B2   B   0.389122867804209   0.610888119742702   0.125417144951667   1.0000000
B2   B   0.721740496581746   0.610857320713448   0.125228309664623   1.0000000
B2   B   0.555659157133131   0.111326256434461   0.125062737011091   1.0000000
B2   B   0.389122867804205   0.610888119742702   0.624582855048334   1.0000000
B2   B   0.888925286989316   0.111129310161330   0.125219824606025   1.0000000
B2   B   0.222269325686236   0.777801329509789   0.624794522125833   1.0000000
B2   B   0.055629344146937   0.277768349590488   0.624717662956717   1.0000000
B2   B   0.389040724762521   0.278166732153966   0.624048236896059   1.0000000
B2   B   0.555659157133131   0.777666234032012   0.624937262988910   1.0000000
B2   B   0.888693347411942   0.777688635320218   0.625010161498053   1.0000000
B2   B   0.722146263204882   0.277812869138663   0.625071314668355   1.0000000
B2   B   0.055447080268370   0.777760326583884   0.125141482778085   1.0000000
B2   B   0.389024431498130   0.777730232095769   0.125213531391291   1.0000000
B2   B   0.222382592913932   0.277857963123633   0.125282168250696   1.0000000
B2   B   0.722146263204882   0.777666727399548   0.124928685331644   1.0000000
B2   B   0.555708942787746   0.278206109780032   0.125592217560030   1.0000000
B2   B   0.888870154096247   0.277754056865951   0.125163216923466   1.0000000
B2   B   0.055561597764932   0.444367259905688   0.624770287371682   1.0000000
B2   B   0.222330645128859   0.944656089135344   0.624771549758338   1.0000000
B2   B   0.555653620222272   0.944493476777802   0.624848670502460   1.0000000
B2   B   0.389040724762521   0.444207325941885   0.624048236896059   1.0000000
B2   B   0.888870154096247   0.944449430563639   0.624836783076535   1.0000000
B2   B   0.055561597764932   0.944527671192570   0.125229712628317   1.0000000
B2   B   0.721740496581746   0.444216509201639   0.624771690335382   1.0000000
B2   B   0.389024431498130   0.944627532735687   0.125213531391291   1.0000000
B2   B   0.222370730509538   0.444331094782932   0.125265418232837   1.0000000
B2   B   0.222330645128859   0.611007889326855   0.125228450241658   1.0000000
B2   B   0.555356049620513   0.444344691476921   0.132502334357504   1.0000000
B2   B   0.722261135631767   0.944439070151886   0.125109062673863   1.0000000
B2   B   0.888693347411942   0.444338045425054   0.124989838501940   1.0000000
B2   B   0.055447080268370   0.611020087017821   0.624858517221920   1.0000000
B2   B   0.222370730509538   0.111372969059942   0.624734581767152   1.0000000
B2   B   0.721740496581746   0.610857320713448   0.624771690335382   1.0000000
B2   B   0.555659157133131   0.111326256434460   0.624937262988910   1.0000000
B2   B   0.888925286989316   0.111129310161330   0.624780175393978   1.0000000


