data_1
_audit_creation_method   'vasp2cif'
_cell_length_a    14.93631414619966
_cell_length_b    14.936314146199727
_cell_length_c    13.341276283792837
_cell_angle_alpha    90.0
_cell_angle_beta    90.0
_cell_angle_gamma    119.99999999999984

_symmetry_space_group_name_H-M    'P 1'
loop_
_atom_site_label
_atom_site_type_symbol
_atom_site_fract_x
_atom_site_fract_y
_atom_site_fract_z
_atom_site_occupancy
O2   O   0.422453225446336   0.377893279389832   0.375000000000000   1.0000000
O2   O   0.581949445470429   0.457641389401879   0.375000000000000   1.0000000
N2   N   0.111099670711544   0.055549549619479   0.125154072917242   1.0000000
N2   N   0.611143286525110   0.555557448248052   0.125668840323551   1.0000000
N2   N   0.444425427057602   0.055565790550336   0.125197626020790   1.0000000
N2   N   0.944471661036701   0.555568100860067   0.125093563803449   1.0000000
N2   N   0.777757411268695   0.055545372301015   0.125123962850612   1.0000000
N2   N   0.111118655720441   0.722225994526884   0.624872728772935   1.0000000
N2   N   0.444425427057602   0.722192969840602   0.624802373979211   1.0000000
N2   N   0.277769963973679   0.222229365718700   0.624425689706392   1.0000000
N2   N   0.777808135889686   0.722237129220905   0.624925519183985   1.0000000
N2   N   0.611110939135343   0.222244415214219   0.624778315996463   1.0000000
N2   N   0.944431981925370   0.222218109669938   0.624908783443591   1.0000000
N2   N   0.277767705808546   0.722213238797749   0.125129706777626   1.0000000
N2   N   0.111090970130654   0.222212151731991   0.125184675981582   1.0000000
N2   N   0.444443154651215   0.222256571311666   0.125570894262699   1.0000000
N2   N   0.611110939135343   0.722199857254453   0.125221684003536   1.0000000
N2   N   0.944471661036701   0.722236893509969   0.125093563803449   1.0000000
N2   N   0.777774099634177   0.222225044322845   0.125093377490893   1.0000000
N2   N   0.111114122459159   0.888891626018015   0.624865314561911   1.0000000
N2   N   0.444420148577012   0.888876740955171   0.624874654874958   1.0000000
N2   N   0.277769963973679   0.388873931588308   0.624425689706392   1.0000000
N2   N   0.611143286525110   0.388919171610388   0.624331159676448   1.0000000
N2   N   0.777774099634177   0.888882388644661   0.624906622509107   1.0000000
N2   N   0.944454024437099   0.388893192072276   0.624918006003889   1.0000000
N2   N   0.111099670711544   0.388883454425393   0.125154072917242   1.0000000
N2   N   0.277767705808546   0.888887800344126   0.125129706777626   1.0000000
N2   N   0.611083858925621   0.888864751365992   0.125135182941302   1.0000000
N2   N   0.444436844560463   0.388885088946896   0.125615756663737   1.0000000
N2   N   0.944454024437099   0.888894165698151   0.125081993996111   1.0000000
N2   N   0.777808135889686   0.388904340002110   0.125074480816013   1.0000000
N2   N   0.277771397703201   0.555541361703478   0.624740202287862   1.0000000
N2   N   0.111099670711544   0.055549549619479   0.624845927082758   1.0000000
N2   N   0.611143286525110   0.555557448248052   0.624331159676448   1.0000000
N2   N   0.444425427057602   0.055565790550336   0.624802373979211   1.0000000
N2   N   0.944471661036701   0.555568100860067   0.624906436196551   1.0000000
N2   N   0.111114122459159   0.555555829774474   0.125134685438089   1.0000000
N2   N   0.777757411268695   0.055545372301015   0.624876037149389   1.0000000
N2   N   0.277771397703201   0.055563369333060   0.125259797712138   1.0000000
N2   N   0.444443154651215   0.555519916672884   0.125570894262699   1.0000000
N2   N   0.777821330727483   0.555577332030409   0.125150416780196   1.0000000
N2   N   0.611083858925621   0.055552440892959   0.125135182941302   1.0000000
N2   N   0.444443154651215   0.555519916672884   0.624429105737302   1.0000000
N2   N   0.944431981925370   0.055547205588768   0.125091216556409   1.0000000
N2   N   0.277767705808546   0.722213238797749   0.624870293222373   1.0000000
N2   N   0.111090970130654   0.222212151731991   0.624815324018417   1.0000000
N2   N   0.444443154651215   0.222256571311666   0.624429105737302   1.0000000
N2   N   0.611110939135343   0.722199857254453   0.624778315996463   1.0000000
N2   N   0.944471661036701   0.722236893509969   0.624906436196551   1.0000000
N2   N   0.777774099634177   0.222225044322845   0.624906622509107   1.0000000
N2   N   0.111118655720441   0.722225994526884   0.125127271227064   1.0000000
N2   N   0.444425427057602   0.722192969840602   0.125197626020790   1.0000000
N2   N   0.277769963973679   0.222229365718700   0.125574310293607   1.0000000
N2   N   0.777808135889686   0.722237129220905   0.125074480816013   1.0000000
N2   N   0.611110939135343   0.222244415214219   0.125221684003536   1.0000000
N2   N   0.944431981925370   0.222218109669938   0.125091216556409   1.0000000
N2   N   0.111099670711544   0.388883454425393   0.624845927082758   1.0000000
N2   N   0.277767705808546   0.888887800344126   0.624870293222373   1.0000000
N2   N   0.611083858925621   0.888864751365992   0.624864817058697   1.0000000
N2   N   0.444436844560463   0.388885088946896   0.624384243336263   1.0000000
N2   N   0.944454024437099   0.888894165698151   0.624918006003889   1.0000000
N2   N   0.111114122459159   0.888891626018015   0.125134685438089   1.0000000
N2   N   0.777808135889686   0.388904340002110   0.624925519183985   1.0000000
N2   N   0.444420148577012   0.888876740955171   0.125125345125041   1.0000000
N2   N   0.277769963973679   0.388873931588308   0.125574310293607   1.0000000
N2   N   0.277771397703201   0.555541361703478   0.125259797712138   1.0000000
N2   N   0.611143286525110   0.388919171610388   0.125668840323551   1.0000000
N2   N   0.777774099634177   0.888882388644661   0.125093377490893   1.0000000
N2   N   0.944454024437099   0.388893192072276   0.125081993996111   1.0000000
N2   N   0.111114122459159   0.555555829774474   0.624865314561911   1.0000000
N2   N   0.277771397703201   0.055563369333060   0.624740202287862   1.0000000
N2   N   0.777821330727483   0.555577332030409   0.624849583219804   1.0000000
N2   N   0.611083858925621   0.055552440892959   0.624864817058697   1.0000000
N2   N   0.944431981925370   0.055547205588768   0.624908783443591   1.0000000
N2   N   0.051571842662021   0.108675112332292   0.375000000000000   1.0000000
N2   N   0.556570277840528   0.606405842915273   0.375000000000000   1.0000000
N2   N   0.389394571639753   0.116048228945834   0.375000000000000   1.0000000
N2   N   0.894253224075792   0.613793278704568   0.375000000000000   1.0000000
N2   N   0.720683903091673   0.110824149545429   0.375000000000000   1.0000000
N2   N   0.055560342008442   0.777783175640989   0.875000000000000   1.0000000
N2   N   0.388899050425726   0.777782935201831   0.875000000000000   1.0000000
N2   N   0.222227114928131   0.277780224130734   0.875000000000000   1.0000000
N2   N   0.722224316028833   0.777782928210637   0.875000000000000   1.0000000
N2   N   0.555557206468661   0.277777453320523   0.875000000000000   1.0000000
N2   N   0.888893420646996   0.277777270601874   0.875000000000000   1.0000000
N2   N   0.224649921273002   0.778991627303168   0.375000000000000   1.0000000
N2   N   0.051571842662021   0.276230063663064   0.375000000000000   1.0000000
N2   N   0.377067942858606   0.275023154982021   0.375000000000000   1.0000000
N2   N   0.555338524621546   0.775283686583282   0.375000000000000   1.0000000
N2   N   0.892170184564159   0.779800549673949   0.375000000000000   1.0000000
N2   N   0.722243572624268   0.278824579255361   0.375000000000000   1.0000000
N2   N   0.055559517519998   0.944450786859109   0.875000000000000   1.0000000
N2   N   0.388899050425726   0.944449448557231   0.875000000000000   1.0000000
N2   N   0.222228088767736   0.444443990487810   0.875000000000000   1.0000000
N2   N   0.555555890957576   0.444444612145452   0.875000000000000   1.0000000
N2   N   0.722225058251351   0.944448293840218   0.875000000000000   1.0000000
N2   N   0.888892883026538   0.444442737936691   0.875000000000000   1.0000000
N2   N   0.055436965588288   0.444497026282858   0.375000000000000   1.0000000
N2   N   0.223883519713124   0.946289618698725   0.375000000000000   1.0000000
N2   N   0.555219699419031   0.944276516376180   0.375000000000000   1.0000000
N2   N   0.377067942858606   0.435378121209921   0.375000000000000   1.0000000
N2   N   0.887274300851019   0.943190641900693   0.375000000000000   1.0000000
N2   N   0.730634173989152   0.447659988428537   0.375000000000000   1.0000000
N2   N   0.222229686340185   0.611111414487994   0.875000000000000   1.0000000
N2   N   0.055558300772520   0.111114179938212   0.875000000000000   1.0000000
N2   N   0.555557206468661   0.611113086481474   0.875000000000000   1.0000000
N2   N   0.388897622080038   0.111116311303205   0.875000000000000   1.0000000
N2   N   0.888890910833847   0.611112122083595   0.875000000000000   1.0000000
N2   N   0.058727500262373   0.612451070795795   0.375000000000000   1.0000000
N2   N   0.722225058251351   0.111110097744469   0.875000000000000   1.0000000
N2   N   0.218598459824748   0.109087854051433   0.375000000000000   1.0000000
N2   N   0.389394571639753   0.606679676027262   0.375000000000000   1.0000000
N2   N   0.730634173989152   0.616307518893951   0.375000000000000   1.0000000
N2   N   0.555338524621546   0.113388171371599   0.375000000000000   1.0000000
N2   N   0.388897622080038   0.611114644110175   0.875000000000000   1.0000000
N2   N   0.886110836067823   0.109722084700583   0.375000000000000   1.0000000
N2   N   0.222230305735577   0.777781819534457   0.875000000000000   1.0000000
N2   N   0.055558300772520   0.277777454167643   0.875000000000000   1.0000000
N2   N   0.388895185179536   0.277781361267670   0.875000000000000   1.0000000
N2   N   0.555560647908213   0.777783379981969   0.875000000000000   1.0000000
N2   N   0.888892883026538   0.777783478423183   0.875000000000000   1.0000000
N2   N   0.722224316028833   0.277774721151531   0.875000000000000   1.0000000
N2   N   0.058727500262373   0.779609762799913   0.375000000000000   1.0000000
N2   N   0.390042464411020   0.776924922793454   0.375000000000000   1.0000000
N2   N   0.214243344019811   0.273788338676573   0.375000000000000   1.0000000
N2   N   0.722243572624268   0.776752326702242   0.375000000000000   1.0000000
N2   N   0.556570277840528   0.283497768258591   0.375000000000000   1.0000000
N2   N   0.887274300851019   0.277416992283663   0.375000000000000   1.0000000
N2   N   0.055559517519998   0.444442063994218   0.875000000000000   1.0000000
N2   N   0.222229686340185   0.944451605185526   0.875000000000000   1.0000000
N2   N   0.555560770348202   0.944447051840765   0.875000000000000   1.0000000
N2   N   0.388895185179536   0.444447157245202   0.875000000000000   1.0000000
N2   N   0.888893420646996   0.944449483378456   0.875000000000000   1.0000000
N2   N   0.055436965588288   0.944273272638759   0.375000000000000   1.0000000
N2   N   0.722219746873310   0.444441410789926   0.875000000000000   1.0000000
N2   N   0.390042464411020   0.946450874950901   0.375000000000000   1.0000000
N2   N   0.218598459824748   0.442843939106651   0.375000000000000   1.0000000
N2   N   0.223883519713124   0.610927234347734   0.375000000000000   1.0000000
N2   N   0.720683903091673   0.943193086879579   0.375000000000000   1.0000000
N2   N   0.892170184564159   0.445702968223545   0.375000000000000   1.0000000
N2   N   0.055560342008442   0.611110499700788   0.875000000000000   1.0000000
N2   N   0.222228088767736   0.111117431613261   0.875000000000000   1.0000000
N2   N   0.722219746873310   0.611111669416719   0.875000000000000   1.0000000
N2   N   0.555560647908213   0.111110601259581   0.875000000000000   1.0000000
N2   N   0.888892630397499   0.111112981865420   0.875000000000000   1.0000000
B2   B   0.107623953228970   0.053692677300095   0.375000000000000   1.0000000
B2   B   0.621906644456965   0.559949385957433   0.375000000000000   1.0000000
B2   B   0.444712946405926   0.058093946183298   0.375000000000000   1.0000000
B2   B   0.948165360933540   0.556977356763080   0.375000000000000   1.0000000
B2   B   0.775350334880067   0.054341834106701   0.375000000000000   1.0000000
B2   B   0.111110652590767   0.722221992962047   0.875000000000000   1.0000000
B2   B   0.444464272727011   0.722259282586168   0.875000000000000   1.0000000
B2   B   0.277764344425272   0.222201658224890   0.875000000000000   1.0000000
B2   B   0.777794133923888   0.722243688728295   0.875000000000000   1.0000000
B2   B   0.611137291325103   0.222208924979443   0.875000000000000   1.0000000
B2   B   0.944417843721838   0.222209186679642   0.875000000000000   1.0000000
B2   B   0.279258413421606   0.722418674392802   0.375000000000000   1.0000000
B2   B   0.103491968031532   0.218412650682430   0.375000000000000   1.0000000
B2   B   0.445952033501933   0.227281917969360   0.375000000000000   1.0000000
B2   B   0.611205024805418   0.719781558005857   0.375000000000000   1.0000000
B2   B   0.948165360933540   0.724521337503796   0.375000000000000   1.0000000
B2   B   0.776370116788469   0.221911963234023   0.375000000000000   1.0000000
B2   B   0.111103067198694   0.888877175555859   0.875000000000000   1.0000000
B2   B   0.444461549609777   0.888897441471553   0.875000000000000   1.0000000
B2   B   0.277764344425272   0.388896019533711   0.875000000000000   1.0000000
B2   B   0.611144418182426   0.388892846985032   0.875000000000000   1.0000000
B2   B   0.777782411516634   0.888903740155490   0.875000000000000   1.0000000
B2   B   0.944434418147628   0.388882542190429   0.875000000000000   1.0000000
B2   B   0.107623953228970   0.387264609262204   0.375000000000000   1.0000000
B2   B   0.279258413421606   0.890173072362132   0.375000000000000   1.0000000
B2   B   0.610055049713394   0.887483339581725   0.375000000000000   1.0000000
B2   B   0.944890879478337   0.889592844565294   0.375000000000000   1.0000000
B2   B   0.782295407511978   0.389959988379146   0.375000000000000   1.0000000
B2   B   0.277776555955340   0.555579599132316   0.875000000000000   1.0000000
B2   B   0.111081995093587   0.055530503115962   0.875000000000000   1.0000000
B2   B   0.611144418182426   0.555584904530723   0.875000000000000   1.0000000
B2   B   0.444464272727011   0.055538323474180   0.875000000000000   1.0000000
B2   B   0.944449003020313   0.555556410793492   0.875000000000000   1.0000000
B2   B   0.112634055961174   0.555795764177348   0.375000000000000   1.0000000
B2   B   0.777774306890843   0.055553820112090   0.875000000000000   1.0000000
B2   B   0.277598946826134   0.056736278984590   0.375000000000000   1.0000000
B2   B   0.445952033501933   0.552003448865910   0.375000000000000   1.0000000
B2   B   0.784577830375518   0.558955581854427   0.375000000000000   1.0000000
B2   B   0.610055049713394   0.055905043464999   0.375000000000000   1.0000000
B2   B   0.444468265857857   0.555596417873385   0.875000000000000   1.0000000
B2   B   0.940763639742596   0.053511037494535   0.375000000000000   1.0000000
B2   B   0.277785434464951   0.722237460742787   0.875000000000000   1.0000000
B2   B   0.111070105156680   0.222201719245004   0.875000000000000   1.0000000
B2   B   0.444468265857857   0.222205181317807   0.875000000000000   1.0000000
B2   B   0.611137291325103   0.722261699678989   0.875000000000000   1.0000000
B2   B   0.944449003020313   0.722225925560158   0.875000000000000   1.0000000
B2   B   0.777782411516634   0.222212004694472   0.875000000000000   1.0000000
B2   B   0.113801400322520   0.723567366827924   0.375000000000000   1.0000000
B2   B   0.444712946405926   0.719952333555964   0.375000000000000   1.0000000
B2   B   0.266416854622162   0.216992991031027   0.375000000000000   1.0000000
B2   B   0.782295407511978   0.725668752466162   0.375000000000000   1.0000000
B2   B   0.611205024805418   0.224756800132889   0.375000000000000   1.0000000
B2   B   0.940763639742596   0.220585935581396   0.375000000000000   1.0000000
B2   B   0.111081995093587   0.388884825310954   0.875000000000000   1.0000000
B2   B   0.277785434464951   0.888881307055493   0.875000000000000   1.0000000
B2   B   0.611126559492262   0.888910015091030   0.875000000000000   1.0000000
B2   B   0.444470894308988   0.388902113821158   0.875000000000000   1.0000000
B2   B   0.944434418147628   0.888885209290527   0.875000000000000   1.0000000
B2   B   0.112634055961174   0.890171625117155   0.375000000000000   1.0000000
B2   B   0.777794133923888   0.388883778528921   0.875000000000000   1.0000000
B2   B   0.444680873794028   0.889007103563678   0.375000000000000   1.0000000
B2   B   0.266416854622162   0.382757196924462   0.375000000000000   1.0000000
B2   B   0.277598946826134   0.554196001174878   0.375000000000000   1.0000000
B2   B   0.621906644456965   0.395290591832860   0.375000000000000   1.0000000
B2   B   0.776370116788469   0.887791486887775   0.375000000000000   1.0000000
B2   B   0.944890879478337   0.388631368246371   0.375000000000000   1.0000000
B2   B   0.111103067198694   0.555559224976164   0.875000000000000   1.0000000
B2   B   0.277776555955340   0.055530290156359   0.875000000000000   1.0000000
B2   B   0.777800123509566   0.555566728421451   0.875000000000000   1.0000000
B2   B   0.611126559492262   0.055549877734561   0.875000000000000   1.0000000
B2   B   0.944417843721838   0.055541990375530   0.875000000000000   1.0000000
B2   B   0.055435431100488   0.111008161814921   0.124805134922427   1.0000000
B2   B   0.555677036770061   0.611201493483410   0.125035533559573   1.0000000
B2   B   0.388865021368842   0.111009427929547   0.124897359085756   1.0000000
B2   B   0.888981750166020   0.611157541749681   0.124889580977339   1.0000000
B2   B   0.722219925130795   0.111109178030392   0.124922648884846   1.0000000
B2   B   0.055552375595399   0.777749804300435   0.625078000587645   1.0000000
B2   B   0.388855242338879   0.777796969164127   0.625096930863267   1.0000000
B2   B   0.222070070063590   0.277701701698463   0.625261933542514   1.0000000
B2   B   0.722295839161918   0.777823443149432   0.625112091188531   1.0000000
B2   B   0.555677036770061   0.277808876619987   0.624964466440427   1.0000000
B2   B   0.888867032116744   0.277789508130678   0.625117888249628   1.0000000
B2   B   0.222182970106279   0.777758151719807   0.124916030244483   1.0000000
B2   B   0.055435431100488   0.277760602618902   0.124805134922427   1.0000000
B2   B   0.388915714677812   0.277771616998517   0.124716020753541   1.0000000
B2   B   0.555577380099321   0.777820613010109   0.124903127957835   1.0000000
B2   B   0.888941711783052   0.777787713604243   0.124867009064705   1.0000000
B2   B   0.722295839161918   0.277805729345822   0.124887908811469   1.0000000
B2   B   0.055497831324699   0.944352295956943   0.625130868261130   1.0000000
B2   B   0.388855242338879   0.944391606508088   0.625096930863267   1.0000000
B2   B   0.222107031621192   0.444489905394724   0.625157096537501   1.0000000
B2   B   0.555672433840565   0.444502883586947   0.624748344415702   1.0000000
B2   B   0.722219925130795   0.944444080433738   0.625077351115155   1.0000000
B2   B   0.888941711783052   0.444487331512143   0.625132990935295   1.0000000
B2   B   0.055497831324699   0.444478868701085   0.124869131738870   1.0000000
B2   B   0.222161108909178   0.944335556177823   0.124891366494748   1.0000000
B2   B   0.555541566295998   0.944437449814663   0.124918197938777   1.0000000
B2   B   0.388915714677812   0.444477431012629   0.124716020753541   1.0000000
B2   B   0.888867032116744   0.944410857319402   0.124882111750371   1.0000000
B2   B   0.722382449726264   0.444517235105138   0.124973726262991   1.0000000
B2   B   0.222161108909178   0.611158886064690   0.625108633505252   1.0000000
B2   B   0.055435431100488   0.111008161814921   0.625194865077573   1.0000000
B2   B   0.555677036770061   0.611201493483410   0.624964466440427   1.0000000
B2   B   0.388865021368842   0.111009427929547   0.625102640914244   1.0000000
B2   B   0.888981750166020   0.611157541749681   0.625110419022662   1.0000000
B2   B   0.055552375595399   0.611135904628298   0.124921999412355   1.0000000
B2   B   0.722219925130795   0.111109178030392   0.625077351115155   1.0000000
B2   B   0.222107031621192   0.110950459559803   0.124842903462498   1.0000000
B2   B   0.388865021368842   0.611188926772638   0.124897359085756   1.0000000
B2   B   0.722382449726264   0.611198547954460   0.124973726262991   1.0000000
B2   B   0.555577380099321   0.111090100422548   0.124903127957835   1.0000000
B2   B   0.388865021368842   0.611188926772638   0.625102640914244   1.0000000
B2   B   0.888832426831969   0.111082880082656   0.124891311792603   1.0000000
B2   B   0.222182970106279   0.777758151719807   0.625083969755517   1.0000000
B2   B   0.055435431100488   0.277760602618902   0.625194865077573   1.0000000
B2   B   0.388915714677812   0.277771616998517   0.625283979246459   1.0000000
B2   B   0.555577380099321   0.777820613010109   0.625096872042166   1.0000000
B2   B   0.888941711783052   0.777787713604243   0.625132990935295   1.0000000
B2   B   0.722295839161918   0.277805729345822   0.625112091188531   1.0000000
B2   B   0.055552375595399   0.777749804300435   0.124921999412355   1.0000000
B2   B   0.388855242338879   0.777796969164127   0.124903069136733   1.0000000
B2   B   0.222070070063590   0.277701701698463   0.124738066457486   1.0000000
B2   B   0.722295839161918   0.777823443149432   0.124887908811469   1.0000000
B2   B   0.555677036770061   0.277808876619987   0.125035533559573   1.0000000
B2   B   0.888867032116744   0.277789508130678   0.124882111750371   1.0000000
B2   B   0.055497831324699   0.444478868701085   0.625130868261130   1.0000000
B2   B   0.222161108909178   0.944335556177823   0.625108633505252   1.0000000
B2   B   0.555541566295998   0.944437449814663   0.625081802061223   1.0000000
B2   B   0.388915714677812   0.444477431012629   0.625283979246459   1.0000000
B2   B   0.888867032116744   0.944410857319402   0.625117888249628   1.0000000
B2   B   0.055497831324699   0.944352295956943   0.124869131738870   1.0000000
B2   B   0.722382449726264   0.444517235105138   0.625026273737009   1.0000000
B2   B   0.388855242338879   0.944391606508088   0.124903069136733   1.0000000
B2   B   0.222107031621192   0.444489905394724   0.124842903462498   1.0000000
B2   B   0.222161108909178   0.611158886064690   0.124891366494748   1.0000000
B2   B   0.555672433840565   0.444502883586947   0.125251655584298   1.0000000
B2   B   0.722219925130795   0.944444080433738   0.124922648884846   1.0000000
B2   B   0.888941711783052   0.444487331512143   0.124867009064705   1.0000000
B2   B   0.055552375595399   0.611135904628298   0.625078000587645   1.0000000
B2   B   0.222107031621192   0.110950459559803   0.625157096537501   1.0000000
B2   B   0.722382449726264   0.611198547954460   0.625026273737009   1.0000000
B2   B   0.555577380099321   0.111090100422548   0.625096872042166   1.0000000
B2   B   0.888832426831969   0.111082880082656   0.625108688207397   1.0000000


