data_1
_audit_creation_method   'vasp2cif'
_cell_length_a    14.93631414619966
_cell_length_b    14.936314146199727
_cell_length_c    13.341276283792837
_cell_angle_alpha    90.0
_cell_angle_beta    90.0
_cell_angle_gamma    119.99999999999984

_symmetry_space_group_name_H-M    'P 1'
loop_
_atom_site_label
_atom_site_type_symbol
_atom_site_fract_x
_atom_site_fract_y
_atom_site_fract_z
_atom_site_occupancy
Se2   Se   0.516314477595592   0.424823905464460   0.375000000000000   1.0000000
N2   N   0.111063014603056   0.055528656516289   0.124943940815079   1.0000000
N2   N   0.611060896843628   0.555562610901060   0.124139131003293   1.0000000
N2   N   0.444453105332117   0.055545289856996   0.124932927641557   1.0000000
N2   N   0.944393172235042   0.555529398168216   0.124960920084106   1.0000000
N2   N   0.777772203152443   0.055552768242889   0.124845853467433   1.0000000
N2   N   0.111085035102660   0.722209184217994   0.625105353818103   1.0000000
N2   N   0.444453105332117   0.722241148808458   0.625067072358441   1.0000000
N2   N   0.277687663959083   0.222170166038794   0.625254563266836   1.0000000
N2   N   0.777722905300811   0.722203340604978   0.625072754432975   1.0000000
N2   N   0.611096985838617   0.222182695277742   0.625198423140440   1.0000000
N2   N   0.944410231049000   0.222204128730814   0.625125549011395   1.0000000
N2   N   0.277776748405428   0.722221919553854   0.124912275009124   1.0000000
N2   N   0.111047656258793   0.222190494796061   0.124932391142611   1.0000000
N2   N   0.444435653936648   0.222193345424914   0.124571255596842   1.0000000
N2   N   0.611096985838617   0.722247623894203   0.124801576859561   1.0000000
N2   N   0.944393172235042   0.722197107400161   0.124960920084106   1.0000000
N2   N   0.777761555410216   0.222199228892761   0.124874220197349   1.0000000
N2   N   0.111084092769014   0.888877254685812   0.625099629802782   1.0000000
N2   N   0.444457999171647   0.888895666252486   0.625097826622358   1.0000000
N2   N   0.277687663959083   0.388850831253617   0.625254563266836   1.0000000
N2   N   0.611060896843628   0.388831619275895   0.625860868996707   1.0000000
N2   N   0.777761555410216   0.888895659850784   0.625125779802652   1.0000000
N2   N   0.944403397415853   0.388867710492231   0.625086977566234   1.0000000
N2   N   0.111063014603056   0.388867691420096   0.124943940815079   1.0000000
N2   N   0.277776748405428   0.888888162184903   0.124912275009124   1.0000000
N2   N   0.611120200619390   0.888909264567331   0.124874210162690   1.0000000
N2   N   0.444252625514825   0.388792979424077   0.122827829653746   1.0000000
N2   N   0.944403397415853   0.888869020256950   0.124913022433767   1.0000000
N2   N   0.777722905300811   0.388852898029160   0.124927245567025   1.0000000
N2   N   0.277764376476447   0.555552109881321   0.625045599331059   1.0000000
N2   N   0.111063014603056   0.055528656516289   0.625056059184920   1.0000000
N2   N   0.611060896843628   0.555562610901061   0.625860868996707   1.0000000
N2   N   0.444453105332117   0.055545289856996   0.625067072358441   1.0000000
N2   N   0.944393172235042   0.555529398168216   0.625039079915894   1.0000000
N2   N   0.111084092769014   0.555540171416529   0.124900370197218   1.0000000
N2   N   0.777772203152443   0.055552768242889   0.625154146532568   1.0000000
N2   N   0.277764376476447   0.055545599928463   0.124954400668940   1.0000000
N2   N   0.444435653936648   0.555575641845069   0.124571255596842   1.0000000
N2   N   0.777703492182737   0.555518412758036   0.124963832150226   1.0000000
N2   N   0.611120200619390   0.055544269385388   0.124874210162690   1.0000000
N2   N   0.444435653936648   0.555575641845069   0.625428744403158   1.0000000
N2   N   0.944410231049000   0.055539435651522   0.124874450988605   1.0000000
N2   N   0.277776748405428   0.722221919553854   0.625087724990876   1.0000000
N2   N   0.111047656258793   0.222190494796061   0.625067608857389   1.0000000
N2   N   0.444435653936648   0.222193345424914   0.625428744403158   1.0000000
N2   N   0.611096985838617   0.722247623894203   0.625198423140440   1.0000000
N2   N   0.944393172235042   0.722197107400161   0.625039079915894   1.0000000
N2   N   0.777761555410216   0.222199228892761   0.625125779802652   1.0000000
N2   N   0.111085035102660   0.722209184217994   0.124894646181897   1.0000000
N2   N   0.444453105332117   0.722241148808458   0.124932927641557   1.0000000
N2   N   0.277687663959083   0.222170166038794   0.124745436733165   1.0000000
N2   N   0.777722905300811   0.722203340604978   0.124927245567025   1.0000000
N2   N   0.611096985838617   0.222182695277742   0.124801576859561   1.0000000
N2   N   0.944410231049000   0.222204128730814   0.124874450988605   1.0000000
N2   N   0.111063014603056   0.388867691420096   0.625056059184920   1.0000000
N2   N   0.277776748405428   0.888888162184903   0.625087724990876   1.0000000
N2   N   0.611120200619390   0.888909264567331   0.625125789837310   1.0000000
N2   N   0.444252625514825   0.388792979424077   0.627172170346254   1.0000000
N2   N   0.944403397415853   0.888869020256950   0.625086977566234   1.0000000
N2   N   0.111084092769014   0.888877254685812   0.124900370197218   1.0000000
N2   N   0.777722905300811   0.388852898029160   0.625072754432975   1.0000000
N2   N   0.444457999171647   0.888895666252486   0.124902173377642   1.0000000
N2   N   0.277687663959083   0.388850831253617   0.124745436733165   1.0000000
N2   N   0.277764376476447   0.555552109881321   0.124954400668940   1.0000000
N2   N   0.611060896843628   0.388831619275895   0.124139131003293   1.0000000
N2   N   0.777761555410216   0.888895659850784   0.124874220197349   1.0000000
N2   N   0.944403397415853   0.388867710492231   0.124913022433767   1.0000000
N2   N   0.111084092769014   0.555540171416529   0.625099629802782   1.0000000
N2   N   0.277764376476447   0.055545599928463   0.625045599331059   1.0000000
N2   N   0.777703492182737   0.555518412758037   0.625036167849775   1.0000000
N2   N   0.611120200619390   0.055544269385388   0.625125789837310   1.0000000
N2   N   0.944410231049000   0.055539435651522   0.625125549011395   1.0000000
N2   N   0.058315237384354   0.112606167908131   0.375000000000000   1.0000000
N2   N   0.556357206789646   0.620823526713603   0.375000000000000   1.0000000
N2   N   0.387971183086435   0.104458602174636   0.375000000000000   1.0000000
N2   N   0.886498441571987   0.609915887452664   0.375000000000000   1.0000000
N2   N   0.724328820739474   0.111213922633047   0.375000000000000   1.0000000
N2   N   0.055552108673469   0.777774020520051   0.875000000000000   1.0000000
N2   N   0.388881952020623   0.777776856608037   0.875000000000000   1.0000000
N2   N   0.222219825026784   0.277776579180060   0.875000000000000   1.0000000
N2   N   0.722221281974978   0.777772751180783   0.875000000000000   1.0000000
N2   N   0.555551705221396   0.277777370680999   0.875000000000000   1.0000000
N2   N   0.888890458767135   0.277783785581403   0.875000000000000   1.0000000
N2   N   0.220577212042742   0.776955272688039   0.375000000000000   1.0000000
N2   N   0.058315237384354   0.279042402809559   0.375000000000000   1.0000000
N2   N   0.389075919877049   0.267145801971583   0.375000000000000   1.0000000
N2   N   0.556263376093786   0.782344609886566   0.375000000000000   1.0000000
N2   N   0.889149619851877   0.778567844582394   0.375000000000000   1.0000000
N2   N   0.724072950233661   0.276225903229917   0.375000000000000   1.0000000
N2   N   0.055552043339863   0.944437020517333   0.875000000000000   1.0000000
N2   N   0.388881952020623   0.944438428745923   0.875000000000000   1.0000000
N2   N   0.222216333002335   0.444448619481629   0.875000000000000   1.0000000
N2   N   0.555558530999797   0.444445932166563   0.875000000000000   1.0000000
N2   N   0.722218494466211   0.944440750988390   0.875000000000000   1.0000000
N2   N   0.888891446678174   0.444449852388222   0.875000000000000   1.0000000
N2   N   0.055883743693170   0.444983569659888   0.375000000000000   1.0000000
N2   N   0.220852784356366   0.942145011805639   0.375000000000000   1.0000000
N2   N   0.556269858438294   0.944801595885811   0.375000000000000   1.0000000
N2   N   0.389075919877049   0.455263451238802   0.375000000000000   1.0000000
N2   N   0.891110868733846   0.946323658953504   0.375000000000000   1.0000000
N2   N   0.721951706219898   0.442090838628932   0.375000000000000   1.0000000
N2   N   0.222213808318594   0.611113427256812   0.875000000000000   1.0000000
N2   N   0.055554468502817   0.111107020816867   0.875000000000000   1.0000000
N2   N   0.555551705221396   0.611107667873732   0.875000000000000   1.0000000
N2   N   0.388881348278947   0.111101843416792   0.875000000000000   1.0000000
N2   N   0.888894136361063   0.611113734847203   0.875000000000000   1.0000000
N2   N   0.053902011330643   0.610646174661654   0.375000000000000   1.0000000
N2   N   0.722218494466211   0.111111076811158   0.875000000000000   1.0000000
N2   N   0.222566289937339   0.109419265334501   0.375000000000000   1.0000000
N2   N   0.387971183086435   0.616845914245141   0.375000000000000   1.0000000
N2   N   0.721951706219898   0.613194200924302   0.375000000000000   1.0000000
N2   N   0.556263376093786   0.107252099540555   0.375000000000000   1.0000000
N2   N   0.388881348278947   0.611112838195498   0.875000000000000   1.0000000
N2   N   0.891608169447992   0.112470751390667   0.375000000000000   1.0000000
N2   N   0.222214395096336   0.777773864214836   0.875000000000000   1.0000000
N2   N   0.055554468502817   0.277780781019286   0.875000000000000   1.0000000
N2   N   0.388883371855238   0.277768050546423   0.875000000000000   1.0000000
N2   N   0.555548933828326   0.777774071713605   0.875000000000000   1.0000000
N2   N   0.888891446678174   0.777774927623288   0.875000000000000   1.0000000
N2   N   0.722221281974978   0.277781864127532   0.875000000000000   1.0000000
N2   N   0.053902011330643   0.776589170002324   0.375000000000000   1.0000000
N2   N   0.388031212866873   0.779275791919430   0.375000000000000   1.0000000
N2   N   0.226329595139661   0.279831464236498   0.375000000000000   1.0000000
N2   N   0.724072950233660   0.781180380337080   0.375000000000000   1.0000000
N2   N   0.556357206789646   0.268867013409380   0.375000000000000   1.0000000
N2   N   0.891110868733846   0.278120543113676   0.375000000000000   1.0000000
N2   N   0.055552043339863   0.444448356155860   0.875000000000000   1.0000000
N2   N   0.222213808318594   0.944433714395116   0.875000000000000   1.0000000
N2   N   0.555547596541051   0.944440464937190   0.875000000000000   1.0000000
N2   N   0.388883371855238   0.444448654642150   0.875000000000000   1.0000000
N2   N   0.888890458767135   0.944440006519069   0.875000000000000   1.0000000
N2   N   0.055883743693170   0.944233507366610   0.375000000000000   1.0000000
N2   N   0.722227197426054   0.444450266864060   0.875000000000000   1.0000000
N2   N   0.388031212866873   0.942088754280779   0.375000000000000   1.0000000
N2   N   0.222566289937339   0.446480357936174   0.375000000000000   1.0000000
N2   N   0.220852784356366   0.612041105884063   0.375000000000000   1.0000000
N2   N   0.724328820739474   0.946448231439762   0.375000000000000   1.0000000
N2   N   0.889149619851877   0.443915108602821   0.375000000000000   1.0000000
N2   N   0.055552108673469   0.611111421486753   0.875000000000000   1.0000000
N2   N   0.222216333002335   0.111101046854041   0.875000000000000   1.0000000
N2   N   0.722227197426054   0.611110263895331   0.875000000000000   1.0000000
N2   N   0.555548933828326   0.111108195448056   0.875000000000000   1.0000000
N2   N   0.888889561267154   0.111111447300248   0.875000000000000   1.0000000
B2   B   0.112712086554630   0.055755336148909   0.375000000000000   1.0000000
B2   B   0.611582800957212   0.567312728070787   0.375000000000000   1.0000000
B2   B   0.444603334936349   0.052055199386902   0.375000000000000   1.0000000
B2   B   0.942908288978359   0.554911619821609   0.375000000000000   1.0000000
B2   B   0.780616597924906   0.056974965629121   0.375000000000000   1.0000000
B2   B   0.111111920979630   0.722222627156480   0.875000000000000   1.0000000
B2   B   0.444422469300036   0.722172950179296   0.875000000000000   1.0000000
B2   B   0.277824032393685   0.222264370135143   0.875000000000000   1.0000000
B2   B   0.777747198677555   0.722181828405149   0.875000000000000   1.0000000
B2   B   0.611070173594830   0.222248721479340   0.875000000000000   1.0000000
B2   B   0.944479936667172   0.222241802176293   0.875000000000000   1.0000000
B2   B   0.276831446524419   0.722584603212336   0.375000000000000   1.0000000
B2   B   0.115911939027056   0.224622636180193   0.375000000000000   1.0000000
B2   B   0.443065697588681   0.214922172372187   0.375000000000000   1.0000000
B2   B   0.612754042523793   0.728967173912932   0.375000000000000   1.0000000
B2   B   0.942908288978359   0.721330002490086   0.375000000000000   1.0000000
B2   B   0.780247421077862   0.222042090429486   0.375000000000000   1.0000000
B2   B   0.111124172107855   0.888907444070421   0.875000000000000   1.0000000
B2   B   0.444424967539506   0.888879150436417   0.875000000000000   1.0000000
B2   B   0.277824032393685   0.388892995591870   0.875000000000000   1.0000000
B2   B   0.611050974525401   0.388894458114897   0.875000000000000   1.0000000
B2   B   0.777770839439219   0.888865767757386   0.875000000000000   1.0000000
B2   B   0.944456911465462   0.388899729289033   0.875000000000000   1.0000000
B2   B   0.112712086554630   0.390290083739050   0.375000000000000   1.0000000
B2   B   0.276831446524419   0.887580176645412   0.375000000000000   1.0000000
B2   B   0.612951259432731   0.891642587401987   0.375000000000000   1.0000000
B2   B   0.945401730611450   0.889692560951867   0.375000000000000   1.0000000
B2   B   0.778417437204999   0.387453027030470   0.375000000000000   1.0000000
B2   B   0.277791401857108   0.555529660866520   0.875000000000000   1.0000000
B2   B   0.111155635889888   0.055590921121032   0.875000000000000   1.0000000
B2   B   0.611050974525401   0.555489849743833   0.875000000000000   1.0000000
B2   B   0.444422469300036   0.055582852454077   0.875000000000000   1.0000000
B2   B   0.944436057791976   0.555554214016358   0.875000000000000   1.0000000
B2   B   0.110226645429168   0.555820996232904   0.375000000000000   1.0000000
B2   B   0.777781624948188   0.055557479140762   0.875000000000000   1.0000000
B2   B   0.277336294236906   0.053260724282862   0.375000000000000   1.0000000
B2   B   0.443065697588680   0.561476858549829   0.375000000000000   1.0000000
B2   B   0.774720196941251   0.554026765137293   0.375000000000000   1.0000000
B2   B   0.612951259432731   0.054642005364074   0.375000000000000   1.0000000
B2   B   0.444419838159834   0.555492009959595   0.875000000000000   1.0000000
B2   B   0.947674168530853   0.057525642322113   0.375000000000000   1.0000000
B2   B   0.277775409954737   0.722206912334124   0.875000000000000   1.0000000
B2   B   0.111176503320463   0.222254918326896   0.875000000000000   1.0000000
B2   B   0.444419838159834   0.222261161533574   0.875000000000000   1.0000000
B2   B   0.611070173594830   0.722154785448818   0.875000000000000   1.0000000
B2   B   0.944436057791976   0.722215177108953   0.875000000000000   1.0000000
B2   B   0.777770839439219   0.222238405015162   0.875000000000000   1.0000000
B2   B   0.109630834270379   0.721482083801854   0.375000000000000   1.0000000
B2   B   0.444603334936349   0.725881468882782   0.375000000000000   1.0000000
B2   B   0.282188478408274   0.222647181930131   0.375000000000000   1.0000000
B2   B   0.778417437204999   0.724297743507858   0.375000000000000   1.0000000
B2   B   0.612754042523793   0.217120201944190   0.375000000000000   1.0000000
B2   B   0.947674168530853   0.223481859542075   0.375000000000000   1.0000000
B2   B   0.111155635889888   0.388898048102184   0.875000000000000   1.0000000
B2   B   0.277775409954737   0.888901830953942   0.875000000000000   1.0000000
B2   B   0.611088186059059   0.888859263103354   0.875000000000000   1.0000000
B2   B   0.444430565548630   0.388881949440980   0.875000000000000   1.0000000
B2   B   0.944456911465462   0.888890515509759   0.875000000000000   1.0000000
B2   B   0.110226645429168   0.887738982529593   0.375000000000000   1.0000000
B2   B   0.777747198677555   0.388898703605735   0.875000000000000   1.0000000
B2   B   0.444732534930786   0.889032934132057   0.375000000000000   1.0000000
B2   B   0.282188478408274   0.392874629811471   0.375000000000000   1.0000000
B2   B   0.277336294236906   0.557408903287380   0.375000000000000   1.0000000
B2   B   0.611582800957212   0.377603406219753   0.375000000000000   1.0000000
B2   B   0.780247421077862   0.891538663981706   0.375000000000000   1.0000000
B2   B   0.945401730611450   0.389042502992911   0.375000000000000   1.0000000
B2   B   0.111124172107855   0.555550061370763   0.875000000000000   1.0000000
B2   B   0.277791401857108   0.055595074323924   0.875000000000000   1.0000000
B2   B   0.777737506784899   0.555535420059117   0.875000000000000   1.0000000
B2   B   0.611088186059059   0.055562256289033   0.875000000000000   1.0000000
B2   B   0.944479936667172   0.055571467824214   0.875000000000000   1.0000000
B2   B   0.055624592455730   0.111186058935303   0.125196492257506   1.0000000
B2   B   0.555397920294031   0.610938604463522   0.124942121360934   1.0000000
B2   B   0.388930080690177   0.111290440230995   0.125298688863578   1.0000000
B2   B   0.888728263091275   0.611030798212309   0.125133969819716   1.0000000
B2   B   0.722202624253908   0.111101725613205   0.125026484088239   1.0000000
B2   B   0.055532041124596   0.777798577971001   0.624941180015701   1.0000000
B2   B   0.388924687728749   0.777742755271043   0.624882221785332   1.0000000
B2   B   0.222344743989641   0.277839038661488   0.624564778736542   1.0000000
B2   B   0.722110231353552   0.777713917704388   0.624946214679446   1.0000000
B2   B   0.555397920294031   0.277792649163846   0.625057878639066   1.0000000
B2   B   0.888873739667557   0.277744964792468   0.624943446960960   1.0000000
B2   B   0.222255574484827   0.777794453909082   0.125058518522350   1.0000000
B2   B   0.055624592455730   0.277771866853763   0.125196492257506   1.0000000
B2   B   0.388882469181031   0.277921982539726   0.125293888736744   1.0000000
B2   B   0.555523913148306   0.777713197626614   0.125106038199959   1.0000000
B2   B   0.888784971790360   0.777745148002683   0.125094511172998   1.0000000
B2   B   0.722110231353552   0.277729646982500   0.125053785320554   1.0000000
B2   B   0.055578995575438   0.944526975852401   0.624878605636799   1.0000000
B2   B   0.388924687728749   0.944515265791042   0.624882221785332   1.0000000
B2   B   0.222317496785582   0.444359648236089   0.624615021918966   1.0000000
B2   B   0.555169285932027   0.444251309632678   0.624850409431997   1.0000000
B2   B   0.722202624253908   0.944434231974038   0.624973515911761   1.0000000
B2   B   0.888784971790360   0.444373157121013   0.624905488827002   1.0000000
B2   B   0.055578995575438   0.444385353056366   0.125121394363200   1.0000000
B2   B   0.222280622952004   0.944576872867802   0.125151810764596   1.0000000
B2   B   0.555559234360139   0.944446283846734   0.125058015461814   1.0000000
B2   B   0.388882469181031   0.444293819974640   0.125293888736744   1.0000000
B2   B   0.888873739667557   0.944462108208427   0.125056553039040   1.0000000
B2   B   0.721932748925581   0.444314143092355   0.124948260012390   1.0000000
B2   B   0.222280622952004   0.611037083417538   0.624848189235404   1.0000000
B2   B   0.055624592455730   0.111186058935303   0.624803507742495   1.0000000
B2   B   0.555397920294031   0.610938604463522   0.625057878639066   1.0000000
B2   B   0.388930080690177   0.111290440230995   0.624701311136421   1.0000000
B2   B   0.888728263091275   0.611030798212309   0.624866030180284   1.0000000
B2   B   0.055532041124596   0.611066796486929   0.125058819984299   1.0000000
B2   B   0.722202624253908   0.111101725613205   0.624973515911761   1.0000000
B2   B   0.222317496785582   0.111291181882829   0.125384978081034   1.0000000
B2   B   0.388930080690177   0.610972973792525   0.125298688863578   1.0000000
B2   B   0.721932748925581   0.610951939166561   0.124948260012390   1.0000000
B2   B   0.555523913148306   0.111144048855028   0.125106038199959   1.0000000
B2   B   0.388930080690177   0.610972973792525   0.624701311136421   1.0000000
B2   B   0.888908641994695   0.111120987664018   0.125043318352247   1.0000000
B2   B   0.222255574484827   0.777794453909082   0.624941481477651   1.0000000
B2   B   0.055624592455730   0.277771866853763   0.624803507742495   1.0000000
B2   B   0.388882469181031   0.277921982539726   0.624706111263257   1.0000000
B2   B   0.555523913148306   0.777713197626614   0.624893961800042   1.0000000
B2   B   0.888784971790360   0.777745148002683   0.624905488827002   1.0000000
B2   B   0.722110231353552   0.277729646982500   0.624946214679446   1.0000000
B2   B   0.055532041124596   0.777798577971001   0.125058819984299   1.0000000
B2   B   0.388924687728749   0.777742755271043   0.125117778214667   1.0000000
B2   B   0.222344743989641   0.277839038661488   0.125435221263457   1.0000000
B2   B   0.722110231353552   0.777713917704388   0.125053785320554   1.0000000
B2   B   0.555397920294031   0.277792649163846   0.124942121360934   1.0000000
B2   B   0.888873739667557   0.277744964792468   0.125056553039040   1.0000000
B2   B   0.055578995575438   0.444385353056366   0.624878605636799   1.0000000
B2   B   0.222280622952004   0.944576872867802   0.624848189235404   1.0000000
B2   B   0.555559234360139   0.944446283846734   0.624941984538186   1.0000000
B2   B   0.388882469181031   0.444293819974640   0.624706111263257   1.0000000
B2   B   0.888873739667557   0.944462108208427   0.624943446960960   1.0000000
B2   B   0.055578995575438   0.944526975852401   0.125121394363200   1.0000000
B2   B   0.721932748925581   0.444314143092355   0.625051739987610   1.0000000
B2   B   0.388924687728749   0.944515265791042   0.125117778214667   1.0000000
B2   B   0.222317496785582   0.444359648236089   0.125384978081034   1.0000000
B2   B   0.222280622952004   0.611037083417538   0.125151810764596   1.0000000
B2   B   0.555169285932027   0.444251309632678   0.125149590568003   1.0000000
B2   B   0.722202624253908   0.944434231974038   0.125026484088239   1.0000000
B2   B   0.888784971790360   0.444373157121013   0.125094511172998   1.0000000
B2   B   0.055532041124596   0.611066796486929   0.624941180015701   1.0000000
B2   B   0.222317496785582   0.111291181882829   0.624615021918966   1.0000000
B2   B   0.721932748925581   0.610951939166561   0.625051739987610   1.0000000
B2   B   0.555523913148306   0.111144048855028   0.624893961800042   1.0000000
B2   B   0.888908641994695   0.111120987664018   0.624956681647753   1.0000000


