data_1
_audit_creation_method   'vasp2cif'
_cell_length_a    14.93631414619966
_cell_length_b    14.936314146199727
_cell_length_c    13.341276283792837
_cell_angle_alpha    90.0
_cell_angle_beta    90.0
_cell_angle_gamma    119.99999999999984

_symmetry_space_group_name_H-M    'P 1'
loop_
_atom_site_label
_atom_site_type_symbol
_atom_site_fract_x
_atom_site_fract_y
_atom_site_fract_z
_atom_site_occupancy
Ge2   Ge   0.444444444444443   0.388888888888886   0.375000000000000   1.0000000
N2   N   0.111107837285307   0.055556698926695   0.125126046129521   1.0000000
N2   N   0.611103609433290   0.555557227637336   0.124671488471058   1.0000000
N2   N   0.444448861641389   0.055556698926695   0.125126046129521   1.0000000
N2   N   0.944441501325604   0.555556585121283   0.125009896332444   1.0000000
N2   N   0.777777777777779   0.055555555555557   0.124952502297330   1.0000000
N2   N   0.111111111111114   0.722222222222221   0.625010726751815   1.0000000
N2   N   0.444448861641389   0.722225496048034   0.624873953870473   1.0000000
N2   N   0.277776105696000   0.222229723900053   0.625328511528949   1.0000000
N2   N   0.777776634406639   0.722225496048034   0.624873953870473   1.0000000
N2   N   0.611115696155526   0.222217637177811   0.624890079944936   1.0000000
N2   N   0.944436118555997   0.222219219234664   0.625033319979598   1.0000000
N2   N   0.277776748212054   0.722218249537656   0.125009896332444   1.0000000
N2   N   0.111101941022296   0.222217637177811   0.125109920055069   1.0000000
N2   N   0.444453618204055   0.222229723900053   0.124671488471058   1.0000000
N2   N   0.611115696155526   0.722231392311030   0.125109920055069   1.0000000
N2   N   0.944441501325604   0.722218249537656   0.125009896332444   1.0000000
N2   N   0.777783100678670   0.222219219234664   0.124966680020396   1.0000000
N2   N   0.111115083795686   0.888891832007724   0.624990103667559   1.0000000
N2   N   0.444450444424944   0.888891888879133   0.625019012256454   1.0000000
N2   N   0.277776105696000   0.388879715129274   0.625328511528949   1.0000000
N2   N   0.611103609433290   0.388879715129274   0.625328511528949   1.0000000
N2   N   0.777783100678670   0.888897214777332   0.625033319979598   1.0000000
N2   N   0.944441444454196   0.388882888908384   0.625019012256454   1.0000000
N2   N   0.111107837285307   0.388884471691940   0.125126046129521   1.0000000
N2   N   0.277776748212054   0.888891832007724   0.125009896332444   1.0000000
N2   N   0.611114114098669   0.888897214777332   0.124966680020396   1.0000000
N2   N   0.444444444444443   0.388888888888886   0.120811301841633   1.0000000
N2   N   0.944441444454196   0.888891888879133   0.124980987743543   1.0000000
N2   N   0.777776634406639   0.388884471691940   0.125126046129521   1.0000000
N2   N   0.277780620672501   0.555552712660833   0.624859581599175   1.0000000
N2   N   0.111107837285307   0.055556698926695   0.624873953870473   1.0000000
N2   N   0.611103609433290   0.555557227637336   0.625328511528949   1.0000000
N2   N   0.444448861641389   0.055556698926695   0.624873953870473   1.0000000
N2   N   0.944441501325604   0.555556585121283   0.624990103667559   1.0000000
N2   N   0.111115083795686   0.555556585121283   0.125009896332444   1.0000000
N2   N   0.777777777777779   0.055555555555557   0.625047497702670   1.0000000
N2   N   0.277780620672501   0.055561241345004   0.125140418400829   1.0000000
N2   N   0.444453618204055   0.555557227637336   0.124671488471057   1.0000000
N2   N   0.777772091988334   0.555552712660833   0.125140418400829   1.0000000
N2   N   0.611114114098669   0.055550232654666   0.124966680020396   1.0000000
N2   N   0.444453618204055   0.555557227637336   0.625328511528949   1.0000000
N2   N   0.944436118555997   0.055550232654666   0.124966680020396   1.0000000
N2   N   0.277776748212054   0.722218249537656   0.624990103667559   1.0000000
N2   N   0.111101941022296   0.222217637177811   0.624890079944936   1.0000000
N2   N   0.444453618204055   0.222229723900053   0.625328511528949   1.0000000
N2   N   0.611115696155526   0.722231392311030   0.624890079944936   1.0000000
N2   N   0.944441501325604   0.722218249537656   0.624990103667559   1.0000000
N2   N   0.777783100678670   0.222219219234664   0.625033319979598   1.0000000
N2   N   0.111111111111114   0.722222222222221   0.124989273248190   1.0000000
N2   N   0.444448861641389   0.722225496048034   0.125126046129521   1.0000000
N2   N   0.277776105696000   0.222229723900053   0.124671488471057   1.0000000
N2   N   0.777776634406639   0.722225496048034   0.125126046129521   1.0000000
N2   N   0.611115696155526   0.222217637177811   0.125109920055069   1.0000000
N2   N   0.944436118555997   0.222219219234664   0.124966680020396   1.0000000
N2   N   0.111107837285307   0.388884471691940   0.624873953870473   1.0000000
N2   N   0.277776748212054   0.888891832007724   0.624990103667559   1.0000000
N2   N   0.611114114098669   0.888897214777332   0.625033319979598   1.0000000
N2   N   0.444444444444443   0.388888888888886   0.629188698158365   1.0000000
N2   N   0.944441444454196   0.888891888879133   0.625019012256454   1.0000000
N2   N   0.111115083795686   0.888891832007724   0.125009896332444   1.0000000
N2   N   0.777776634406639   0.388884471691940   0.624873953870473   1.0000000
N2   N   0.444450444424944   0.888891888879133   0.124980987743543   1.0000000
N2   N   0.277776105696000   0.388879715129274   0.124671488471058   1.0000000
N2   N   0.277780620672501   0.555552712660833   0.125140418400829   1.0000000
N2   N   0.611103609433290   0.388879715129274   0.124671488471058   1.0000000
N2   N   0.777783100678670   0.888897214777332   0.124966680020396   1.0000000
N2   N   0.944441444454196   0.388882888908384   0.124980987743543   1.0000000
N2   N   0.111115083795686   0.555556585121283   0.624990103667559   1.0000000
N2   N   0.277780620672501   0.055561241345004   0.624859581599175   1.0000000
N2   N   0.777772091988334   0.555552712660833   0.624859581599175   1.0000000
N2   N   0.611114114098669   0.055550232654666   0.625033319979598   1.0000000
N2   N   0.944436118555997   0.055550232654667   0.625033319979598   1.0000000
N2   N   0.054583844893036   0.110453289259635   0.375000000000000   1.0000000
N2   N   0.555990584938216   0.611981169876433   0.375000000000000   1.0000000
N2   N   0.387607382957638   0.104851021039137   0.375000000000000   1.0000000
N2   N   0.891131008642770   0.612232170988053   0.375000000000000   1.0000000
N2   N   0.722397236101229   0.110936097232111   0.375000000000000   1.0000000
N2   N   0.055556981584538   0.777776351748796   0.875000000000000   1.0000000
N2   N   0.388888705728034   0.777778518375895   0.875000000000000   1.0000000
N2   N   0.222221899206855   0.277777616270095   0.875000000000000   1.0000000
N2   N   0.722224849252775   0.777775670178656   0.875000000000000   1.0000000
N2   N   0.555555717063242   0.277777616270095   0.875000000000000   1.0000000
N2   N   0.888889747867104   0.277779495734212   0.875000000000000   1.0000000
N2   N   0.221786683978360   0.777560008655856   0.375000000000000   1.0000000
N2   N   0.054583844893036   0.277463888966734   0.375000000000000   1.0000000
N2   N   0.378089490790215   0.256178981580437   0.375000000000000   1.0000000
N2   N   0.555869444366601   0.778749488440295   0.375000000000000   1.0000000
N2   N   0.890616851156179   0.779151645578553   0.375000000000000   1.0000000
N2   N   0.722880044073703   0.277463888966734   0.375000000000000   1.0000000
N2   N   0.055554814957437   0.944443520685465   0.875000000000000   1.0000000
N2   N   0.388888705728034   0.944443520685465   0.875000000000000   1.0000000
N2   N   0.222215649253364   0.444447895952133   0.875000000000000   1.0000000
N2   N   0.555577071388352   0.444455202360840   0.875000000000000   1.0000000
N2   N   0.722222730937740   0.944445461875504   0.875000000000000   1.0000000
N2   N   0.888889812647864   0.444444627605295   0.875000000000000   1.0000000
N2   N   0.054181687754782   0.444798538910959   0.375000000000000   1.0000000
N2   N   0.221101162345279   0.942202324690559   0.375000000000000   1.0000000
N2   N   0.555829164488404   0.944581248910867   0.375000000000000   1.0000000
N2   N   0.378089490790215   0.455243842543114   0.375000000000000   1.0000000
N2   N   0.888752084422461   0.944581248910867   0.375000000000000   1.0000000
N2   N   0.728482312294191   0.445725950375691   0.375000000000000   1.0000000
N2   N   0.222219192743667   0.611114140589666   0.875000000000000   1.0000000
N2   N   0.055557663154672   0.111108484080562   0.875000000000000   1.0000000
N2   N   0.555555717063242   0.611111434126482   0.875000000000000   1.0000000
N2   N   0.388885437381196   0.111101086634567   0.875000000000000   1.0000000
N2   N   0.888894947845997   0.611114140589666   0.875000000000000   1.0000000
N2   N   0.055773324677489   0.611546649354987   0.375000000000000   1.0000000
N2   N   0.722222730937740   0.111110602395590   0.875000000000000   1.0000000
N2   N   0.217243638081495   0.104851021039138   0.375000000000000   1.0000000
N2   N   0.387607382957638   0.616089695251839   0.375000000000000   1.0000000
N2   N   0.728482312294188   0.616089695251839   0.375000000000000   1.0000000
N2   N   0.555869444366601   0.110453289259635   0.375000000000000   1.0000000
N2   N   0.388885437381196   0.611117684079974   0.875000000000000   1.0000000
N2   N   0.888538861130886   0.110936097232111   0.375000000000000   1.0000000
N2   N   0.222219370164258   0.777776351748796   0.875000000000000   1.0000000
N2   N   0.055557663154672   0.277782512407445   0.875000000000000   1.0000000
N2   N   0.388878130972488   0.277756261944976   0.875000000000000   1.0000000
N2   N   0.555550820925887   0.777775670178656   0.875000000000000   1.0000000
N2   N   0.888889812647864   0.777778518375895   0.875000000000000   1.0000000
N2   N   0.722224849252775   0.277782512407445   0.875000000000000   1.0000000
N2   N   0.055773324677489   0.777560008655856   0.375000000000000   1.0000000
N2   N   0.388534794422369   0.779151645578553   0.375000000000000   1.0000000
N2   N   0.221352163456903   0.277342748395119   0.375000000000000   1.0000000
N2   N   0.722880044073703   0.778749488440295   0.375000000000000   1.0000000
N2   N   0.555990584938216   0.277342748395119   0.375000000000000   1.0000000
N2   N   0.888752084422461   0.277504168844939   0.375000000000000   1.0000000
N2   N   0.055554814957437   0.444444627605295   0.875000000000000   1.0000000
N2   N   0.222219192743667   0.944438385487332   0.875000000000000   1.0000000
N2   N   0.555553837599111   0.944443585466225   0.875000000000000   1.0000000
N2   N   0.388878130972488   0.444455202360840   0.875000000000000   1.0000000
N2   N   0.888889747867104   0.944443585466225   0.875000000000000   1.0000000
N2   N   0.054181687754782   0.942716482177150   0.375000000000000   1.0000000
N2   N   0.722232246698768   0.444447895952133   0.875000000000000   1.0000000
N2   N   0.388534794422369   0.942716482177149   0.375000000000000   1.0000000
N2   N   0.217243638081495   0.445725950375691   0.375000000000000   1.0000000
N2   N   0.221101162345279   0.612232170988053   0.375000000000000   1.0000000
N2   N   0.577154351752899   0.455243842543114   0.375000000000000   1.0000000
N2   N   0.722397236101229   0.944794472202443   0.375000000000000   1.0000000
N2   N   0.890616851156179   0.444798538910959   0.375000000000000   1.0000000
N2   N   0.055556981584538   0.611113963169072   0.875000000000000   1.0000000
N2   N   0.222215649253364   0.111101086634567   0.875000000000000   1.0000000
N2   N   0.722232246698768   0.611117684079974   0.875000000000000   1.0000000
N2   N   0.555550820925887   0.111108484080562   0.875000000000000   1.0000000
N2   N   0.888887871457825   0.111110602395590   0.875000000000000   1.0000000
B2   B   0.107821211253580   0.052465824561816   0.375000000000000   1.0000000
B2   B   0.619301050286243   0.562629153286739   0.375000000000000   1.0000000
B2   B   0.444644613308240   0.052465824561816   0.375000000000000   1.0000000
B2   B   0.945437187982268   0.555868262680490   0.375000000000000   1.0000000
B2   B   0.777777777777779   0.055555555555557   0.375000000000000   1.0000000
B2   B   0.111111111111114   0.722222222222221   0.875000000000000   1.0000000
B2   B   0.444440488716423   0.722220000140396   0.875000000000000   1.0000000
B2   B   0.277769479164548   0.222234468595091   0.875000000000000   1.0000000
B2   B   0.777779511423974   0.722220000140396   0.875000000000000   1.0000000
B2   B   0.611093126775072   0.222240206558265   0.875000000000000   1.0000000
B2   B   0.944434264514944   0.222239367584607   0.875000000000000   1.0000000
B2   B   0.277465070652838   0.722902258635111   0.375000000000000   1.0000000
B2   B   0.110077305936405   0.221705319634866   0.375000000000000   1.0000000
B2   B   0.443328103000480   0.214032283047080   0.375000000000000   1.0000000
B2   B   0.611628013698467   0.723256027396940   0.375000000000000   1.0000000
B2   B   0.945437187982268   0.722902258635107   0.375000000000000   1.0000000
B2   B   0.777934197787599   0.221787262372932   0.375000000000000   1.0000000
B2   B   0.111137974233544   0.888900933702641   0.875000000000000   1.0000000
B2   B   0.444469226407659   0.888901279870500   0.875000000000000   1.0000000
B2   B   0.277769479164548   0.388868343902786   0.875000000000000   1.0000000
B2   B   0.611098864738239   0.388868343902786   0.875000000000000   1.0000000
B2   B   0.777805103069659   0.888899068818384   0.875000000000000   1.0000000
B2   B   0.944432053462829   0.388864106925669   0.875000000000000   1.0000000
B2   B   0.107821211253580   0.388688720025089   0.375000000000000   1.0000000
B2   B   0.277465070652838   0.887896145351061   0.375000000000000   1.0000000
B2   B   0.611546070960397   0.889480268747996   0.375000000000000   1.0000000
B2   B   0.944254542081494   0.889078791251835   0.375000000000000   1.0000000
B2   B   0.780867508771508   0.388688720025089   0.375000000000000   1.0000000
B2   B   0.277762323272710   0.555571010060612   0.875000000000000   1.0000000
B2   B   0.111113333192942   0.055553821909363   0.875000000000000   1.0000000
B2   B   0.611098864738239   0.555563854168787   0.875000000000000   1.0000000
B2   B   0.444440488716423   0.055553821909363   0.875000000000000   1.0000000
B2   B   0.944432399630687   0.555570373864232   0.875000000000000   1.0000000
B2   B   0.110431074698225   0.555868262680490   0.375000000000000   1.0000000
B2   B   0.777777777777779   0.055555555555557   0.875000000000000   1.0000000
B2   B   0.276052280406506   0.052104560813006   0.375000000000000   1.0000000
B2   B   0.443328103000480   0.562629153286739   0.375000000000000   1.0000000
B2   B   0.781228772520324   0.557281052926831   0.375000000000000   1.0000000
B2   B   0.611546070960397   0.055399135545730   0.375000000000000   1.0000000
B2   B   0.444464989430543   0.555563854168787   0.875000000000000   1.0000000
B2   B   0.943853064585333   0.055399135545730   0.375000000000000   1.0000000
B2   B   0.277762959469105   0.722195359099795   0.875000000000000   1.0000000
B2   B   0.111147079783200   0.222240206558265   0.875000000000000   1.0000000
B2   B   0.444464989430543   0.222234468595091   0.875000000000000   1.0000000
B2   B   0.611093126775072   0.722186253550129   0.875000000000000   1.0000000
B2   B   0.944432399630687   0.722195359099789   0.875000000000000   1.0000000
B2   B   0.777805103069659   0.222239367584607   0.875000000000000   1.0000000
B2   B   0.111111111111114   0.722222222222221   0.375000000000000   1.0000000
B2   B   0.444644613308240   0.725512122079759   0.375000000000000   1.0000000
B2   B   0.270704180046599   0.214032283047080   0.375000000000000   1.0000000
B2   B   0.780867508771508   0.725512122079759   0.375000000000000   1.0000000
B2   B   0.611628013698467   0.221705319634866   0.375000000000000   1.0000000
B2   B   0.943853064585333   0.221787262372932   0.375000000000000   1.0000000
B2   B   0.111113333192942   0.388892844616905   0.875000000000000   1.0000000
B2   B   0.277762959469105   0.888900933702641   0.875000000000000   1.0000000
B2   B   0.611093965748727   0.888899068818384   0.875000000000000   1.0000000
B2   B   0.444444444444443   0.388888888888886   0.875000000000000   1.0000000
B2   B   0.944432053462829   0.888901279870500   0.875000000000000   1.0000000
B2   B   0.110431074698225   0.887896145351061   0.375000000000000   1.0000000
B2   B   0.777779511423974   0.388892844616905   0.875000000000000   1.0000000
B2   B   0.444824249170330   0.889078791251835   0.375000000000000   1.0000000
B2   B   0.270704180046599   0.390005230332849   0.375000000000000   1.0000000
B2   B   0.276052280406506   0.557281052926831   0.375000000000000   1.0000000
B2   B   0.619301050286243   0.390005230332849   0.375000000000000   1.0000000
B2   B   0.777934197787599   0.889480268747996   0.375000000000000   1.0000000
B2   B   0.944254542081494   0.388509084162998   0.375000000000000   1.0000000
B2   B   0.111137974233544   0.555570373864232   0.875000000000000   1.0000000
B2   B   0.277762323272713   0.055524646545429   0.875000000000000   1.0000000
B2   B   0.777808686787916   0.555571010060612   0.875000000000000   1.0000000
B2   B   0.611093965748727   0.055528230263672   0.875000000000000   1.0000000
B2   B   0.944434264514944   0.055528230263672   0.875000000000000   1.0000000
B2   B   0.055561743991626   0.111097780311513   0.125057585753918   1.0000000
B2   B   0.555552904378605   0.611105808757200   0.124840206130678   1.0000000
B2   B   0.388914153813014   0.111116521690239   0.125075351880959   1.0000000
B2   B   0.888877027042253   0.611105180187807   0.125040933735008   1.0000000
B2   B   0.722238149608525   0.111095183724812   0.124977275641941   1.0000000
B2   B   0.055569009033006   0.777764324300331   0.625011219944548   1.0000000
B2   B   0.388911562887907   0.777765395192328   0.624966362011667   1.0000000
B2   B   0.222227524576134   0.277780428954735   0.625159793869311   1.0000000
B2   B   0.722235553021818   0.777771589341710   0.624942414246085   1.0000000
B2   B   0.555552904378605   0.277780428954735   0.625159793869311   1.0000000
B2   B   0.888886446277166   0.277772892554348   0.625021154204237   1.0000000
B2   B   0.222195315267325   0.777764324300331   0.124988780055458   1.0000000
B2   B   0.055561743991626   0.277797297013447   0.125057585753918   1.0000000
B2   B   0.388920301294783   0.277840602589577   0.123356886713006   1.0000000
B2   B   0.555536036319887   0.777771589341710   0.125057585753918   1.0000000
B2   B   0.888853832304422   0.777765395192328   0.125033637988327   1.0000000
B2   B   0.722235553021818   0.277797297013447   0.125057585753918   1.0000000
B2   B   0.055567938141004   0.944479501028906   0.624966362011667   1.0000000
B2   B   0.388911562887907   0.944479501028906   0.624966362011667   1.0000000
B2   B   0.222202367877213   0.444419179520314   0.624924648119042   1.0000000
B2   B   0.555492730743764   0.444413032038546   0.626643113286994   1.0000000
B2   B   0.722238149608525   0.944476299217050   0.625022724358058   1.0000000
B2   B   0.888853832304422   0.444421770445422   0.624966362011667   1.0000000
B2   B   0.055567938141004   0.444421770445422   0.125033637988327   1.0000000
B2   B   0.222228153145537   0.944456306291075   0.125040933735008   1.0000000
B2   B   0.555560440778984   0.944446887056163   0.124978845795770   1.0000000
B2   B   0.388920301294783   0.444413032038546   0.123356886713006   1.0000000
B2   B   0.888886446277166   0.944446887056163   0.124978845795770   1.0000000
B2   B   0.722216811643094   0.444419179520314   0.125075351880959   1.0000000
B2   B   0.222228153145537   0.611105180187807   0.624959066264995   1.0000000
B2   B   0.055561743991626   0.111097780311512   0.624942414246085   1.0000000
B2   B   0.555552904378605   0.611105808757200   0.625159793869311   1.0000000
B2   B   0.388914153813014   0.111116521690239   0.624924648119042   1.0000000
B2   B   0.888877027042253   0.611105180187807   0.624959066264995   1.0000000
B2   B   0.055569009033006   0.611138018066011   0.124988780055458   1.0000000
B2   B   0.722238149608525   0.111095183724812   0.625022724358058   1.0000000
B2   B   0.222202367877213   0.111116521690239   0.125075351880959   1.0000000
B2   B   0.388914153813014   0.611130965456126   0.125075351880959   1.0000000
B2   B   0.722216811643094   0.611130965456126   0.125075351880959   1.0000000
B2   B   0.555536036319887   0.111097780311513   0.125057585753918   1.0000000
B2   B   0.388914153813014   0.611130965456126   0.624924648119042   1.0000000
B2   B   0.888857034116279   0.111095183724812   0.124977275641941   1.0000000
B2   B   0.222195315267325   0.777764324300331   0.625011219944548   1.0000000
B2   B   0.055561743991626   0.277797297013447   0.624942414246085   1.0000000
B2   B   0.388920301294783   0.277840602589577   0.626643113286994   1.0000000
B2   B   0.555536036319887   0.777771589341710   0.624942414246085   1.0000000
B2   B   0.888853832304422   0.777765395192328   0.624966362011667   1.0000000
B2   B   0.722235553021818   0.277797297013447   0.624942414246085   1.0000000
B2   B   0.055569009033006   0.777764324300331   0.124988780055458   1.0000000
B2   B   0.388911562887907   0.777765395192328   0.125033637988327   1.0000000
B2   B   0.222227524576134   0.277780428954735   0.124840206130678   1.0000000
B2   B   0.722235553021818   0.777771589341710   0.125057585753918   1.0000000
B2   B   0.555552904378605   0.277780428954735   0.124840206130678   1.0000000
B2   B   0.888886446277166   0.277772892554348   0.124978845795770   1.0000000
B2   B   0.055567938141004   0.444421770445422   0.624966362011667   1.0000000
B2   B   0.222228153145537   0.944456306291075   0.624959066264995   1.0000000
B2   B   0.555560440778984   0.944446887056163   0.625021154204237   1.0000000
B2   B   0.388920301294783   0.444413032038546   0.626643113286994   1.0000000
B2   B   0.888886446277166   0.944446887056163   0.625021154204237   1.0000000
B2   B   0.055567938141004   0.944479501028906   0.125033637988327   1.0000000
B2   B   0.722216811643094   0.444419179520314   0.624924648119042   1.0000000
B2   B   0.388911562887907   0.944479501028906   0.125033637988327   1.0000000
B2   B   0.222202367877213   0.444419179520314   0.125075351880959   1.0000000
B2   B   0.222228153145537   0.611105180187807   0.125040933735008   1.0000000
B2   B   0.555492730743764   0.444413032038546   0.123356886713006   1.0000000
B2   B   0.722238149608525   0.944476299217050   0.124977275641941   1.0000000
B2   B   0.888853832304422   0.444421770445422   0.125033637988327   1.0000000
B2   B   0.055569009033006   0.611138018066011   0.625011219944548   1.0000000
B2   B   0.222202367877213   0.111116521690239   0.624924648119042   1.0000000
B2   B   0.722216811643094   0.611130965456126   0.624924648119042   1.0000000
B2   B   0.555536036319887   0.111097780311512   0.624942414246085   1.0000000
B2   B   0.888857034116279   0.111095183724812   0.625022724358058   1.0000000


