data_1
_audit_creation_method   'vasp2cif'
_cell_length_a    14.93631414619966
_cell_length_b    14.936314146199727
_cell_length_c    13.341276283792837
_cell_angle_alpha    90.0
_cell_angle_beta    90.0
_cell_angle_gamma    119.99999999999984

_symmetry_space_group_name_H-M    'P 1'
loop_
_atom_site_label
_atom_site_type_symbol
_atom_site_fract_x
_atom_site_fract_y
_atom_site_fract_z
_atom_site_occupancy
S2   S   0.444444444444443   0.388888888888886   0.375000000000000   1.0000000
N2   N   0.111115893012372   0.055567217136685   0.125138447988689   1.0000000
N2   N   0.611079007171281   0.555540538807754   0.124801042103245   1.0000000
N2   N   0.444451324124313   0.055567217136685   0.125138447988689   1.0000000
N2   N   0.944437135970106   0.555550883224254   0.125032721757522   1.0000000
N2   N   0.777777777777779   0.055555555555557   0.125002208134001   1.0000000
N2   N   0.111111111111114   0.722222222222221   0.624972960275104   1.0000000
N2   N   0.444451324124313   0.722217440320964   0.624861552011312   1.0000000
N2   N   0.277792794525582   0.222254326162054   0.625198957896755   1.0000000
N2   N   0.777766116196652   0.722217440320964   0.624861552011312   1.0000000
N2   N   0.611116889927333   0.222216443406001   0.624879559868658   1.0000000
N2   N   0.944437084167181   0.222219120488797   0.625003428794692   1.0000000
N2   N   0.277782450109083   0.722219586079189   0.125032721757522   1.0000000
N2   N   0.111099553478675   0.222216443406001   0.125120440131342   1.0000000
N2   N   0.444461531636472   0.222254326162054   0.124801042103245   1.0000000
N2   N   0.611116889927333   0.722233779854662   0.125120440131342   1.0000000
N2   N   0.944437135970106   0.722219586079189   0.125032721757522   1.0000000
N2   N   0.777782036321615   0.222219120488797   0.124996571205307   1.0000000
N2   N   0.111113747254147   0.888896197363223   0.624967278242478   1.0000000
N2   N   0.444447074611406   0.888890203972367   0.624994005105937   1.0000000
N2   N   0.277792794525582   0.388871801696857   0.625198957896755   1.0000000
N2   N   0.611079007171281   0.388871801696857   0.625198957896755   1.0000000
N2   N   0.777782036321615   0.888896249166148   0.625003428794692   1.0000000
N2   N   0.944443129360962   0.388886258721923   0.624994005105937   1.0000000
N2   N   0.111115893012372   0.388882009209016   0.125138447988689   1.0000000
N2   N   0.277782450109083   0.888896197363223   0.125032721757522   1.0000000
N2   N   0.611114212844540   0.888896249166148   0.124996571205307   1.0000000
N2   N   0.444444444444443   0.388888888888886   0.120501384195835   1.0000000
N2   N   0.944443129360962   0.888890203972367   0.125005994894063   1.0000000
N2   N   0.777766116196652   0.388882009209016   0.125138447988689   1.0000000
N2   N   0.277788445539292   0.555544887794044   0.624846638489003   1.0000000
N2   N   0.111115893012372   0.055567217136685   0.624861552011312   1.0000000
N2   N   0.611079007171281   0.555540538807754   0.625198957896755   1.0000000
N2   N   0.444451324124313   0.055567217136685   0.624861552011312   1.0000000
N2   N   0.944437135970106   0.555550883224254   0.624967278242478   1.0000000
N2   N   0.111113747254147   0.555550883224254   0.125032721757522   1.0000000
N2   N   0.777777777777779   0.055555555555557   0.624997791865997   1.0000000
N2   N   0.277788445539292   0.055576891078584   0.125153361510998   1.0000000
N2   N   0.444461531636472   0.555540538807754   0.124801042103245   1.0000000
N2   N   0.777756442254752   0.555544887794044   0.125153361510998   1.0000000
N2   N   0.611114212844540   0.055551297011721   0.124996571205307   1.0000000
N2   N   0.444461531636472   0.555540538807754   0.625198957896755   1.0000000
N2   N   0.944437084167181   0.055551297011721   0.124996571205307   1.0000000
N2   N   0.277782450109083   0.722219586079189   0.624967278242478   1.0000000
N2   N   0.111099553478675   0.222216443406001   0.624879559868658   1.0000000
N2   N   0.444461531636472   0.222254326162054   0.625198957896755   1.0000000
N2   N   0.611116889927333   0.722233779854662   0.624879559868658   1.0000000
N2   N   0.944437135970106   0.722219586079189   0.624967278242478   1.0000000
N2   N   0.777782036321615   0.222219120488797   0.625003428794692   1.0000000
N2   N   0.111111111111114   0.722222222222221   0.125027039724895   1.0000000
N2   N   0.444451324124313   0.722217440320964   0.125138447988689   1.0000000
N2   N   0.277792794525582   0.222254326162054   0.124801042103245   1.0000000
N2   N   0.777766116196652   0.722217440320964   0.125138447988689   1.0000000
N2   N   0.611116889927333   0.222216443406001   0.125120440131342   1.0000000
N2   N   0.944437084167181   0.222219120488797   0.124996571205307   1.0000000
N2   N   0.111115893012372   0.388882009209016   0.624861552011312   1.0000000
N2   N   0.277782450109083   0.888896197363223   0.624967278242478   1.0000000
N2   N   0.611114212844540   0.888896249166148   0.625003428794692   1.0000000
N2   N   0.444444444444443   0.388888888888886   0.629498615804166   1.0000000
N2   N   0.944443129360962   0.888890203972367   0.624994005105937   1.0000000
N2   N   0.111113747254147   0.888896197363223   0.125032721757522   1.0000000
N2   N   0.777766116196652   0.388882009209016   0.624861552011312   1.0000000
N2   N   0.444447074611406   0.888890203972367   0.125005994894063   1.0000000
N2   N   0.277792794525582   0.388871801696857   0.124801042103245   1.0000000
N2   N   0.277788445539292   0.555544887794044   0.125153361510998   1.0000000
N2   N   0.611079007171281   0.388871801696857   0.124801042103245   1.0000000
N2   N   0.777782036321615   0.888896249166148   0.124996571205307   1.0000000
N2   N   0.944443129360962   0.388886258721923   0.125005994894063   1.0000000
N2   N   0.111113747254147   0.555550883224254   0.624967278242478   1.0000000
N2   N   0.277788445539292   0.055576891078584   0.624846638489003   1.0000000
N2   N   0.777756442254752   0.555544887794044   0.624846638489003   1.0000000
N2   N   0.611114212844540   0.055551297011721   0.625003428794692   1.0000000
N2   N   0.944437084167181   0.055551297011721   0.625003428794692   1.0000000
N2   N   0.054747734496532   0.110560626241613   0.375000000000000   1.0000000
N2   N   0.555957180923077   0.611914361846153   0.375000000000000   1.0000000
N2   N   0.387768955727936   0.105937125771110   0.375000000000000   1.0000000
N2   N   0.890762761031861   0.612048047182601   0.375000000000000   1.0000000
N2   N   0.722366297833061   0.110967035500274   0.375000000000000   1.0000000
N2   N   0.055555340516720   0.777777992816615   0.875000000000000   1.0000000
N2   N   0.388888755797160   0.777778596516066   0.875000000000000   1.0000000
N2   N   0.222221649757007   0.277777491545172   0.875000000000000   1.0000000
N2   N   0.722223066877225   0.777776639900354   0.875000000000000   1.0000000
N2   N   0.555555841788164   0.277777491545172   0.875000000000000   1.0000000
N2   N   0.888890290407360   0.277780580814729   0.875000000000000   1.0000000
N2   N   0.221868822182133   0.777601077757734   0.375000000000000   1.0000000
N2   N   0.054747734496532   0.277520441588255   0.375000000000000   1.0000000
N2   N   0.379218585678457   0.258437171356920   0.375000000000000   1.0000000
N2   N   0.555812891745082   0.778585598836804   0.375000000000000   1.0000000
N2   N   0.890295234900682   0.778896776524129   0.375000000000000   1.0000000
N2   N   0.722772707091723   0.277520441588255   0.375000000000000   1.0000000
N2   N   0.055554736817270   0.944443492614428   0.875000000000000   1.0000000
N2   N   0.388888755797160   0.944443492614428   0.875000000000000   1.0000000
N2   N   0.222220827601476   0.444446122533585   0.875000000000000   1.0000000
N2   N   0.555570793330213   0.444452063331771   0.875000000000000   1.0000000
N2   N   0.722221411600073   0.944442823200149   0.875000000000000   1.0000000
N2   N   0.888889840718900   0.444444577536169   0.875000000000000   1.0000000
N2   N   0.054436556809205   0.444731791709886   0.375000000000000   1.0000000
N2   N   0.221285286150734   0.942570572301468   0.375000000000000   1.0000000
N2   N   0.555781788252315   0.944557560792822   0.375000000000000   1.0000000
N2   N   0.379218585678457   0.454114747654872   0.375000000000000   1.0000000
N2   N   0.888775772540507   0.944557560792822   0.375000000000000   1.0000000
N2   N   0.727396207562226   0.445564377605393   0.375000000000000   1.0000000
N2   N   0.222221234094535   0.611112099238800   0.875000000000000   1.0000000
N2   N   0.055556693432983   0.111110266456110   0.875000000000000   1.0000000
N2   N   0.555555841788164   0.611111683576328   0.875000000000000   1.0000000
N2   N   0.388887210799743   0.111108038401226   0.875000000000000   1.0000000
N2   N   0.888890865144258   0.611112099238800   0.875000000000000   1.0000000
N2   N   0.055732255575601   0.611464511151202   0.375000000000000   1.0000000
N2   N   0.722221411600073   0.111111921733261   0.875000000000000   1.0000000
N2   N   0.218168170043167   0.105937125771110   0.375000000000000   1.0000000
N2   N   0.387768955727936   0.615165163290168   0.375000000000000   1.0000000
N2   N   0.727396207562226   0.615165163290168   0.375000000000000   1.0000000
N2   N   0.555812891745082   0.110560626241613   0.375000000000000   1.0000000
N2   N   0.388887210799743   0.611112505731860   0.875000000000000   1.0000000
N2   N   0.888600737667205   0.110967035500274   0.375000000000000   1.0000000
N2   N   0.222222652299896   0.777777992816615   0.875000000000000   1.0000000
N2   N   0.055556693432983   0.277779760310208   0.875000000000000   1.0000000
N2   N   0.388881270001558   0.277762540003124   0.875000000000000   1.0000000
N2   N   0.555553573023127   0.777776639900354   0.875000000000000   1.0000000
N2   N   0.888889840718900   0.777778596516066   0.875000000000000   1.0000000
N2   N   0.722223066877225   0.277779760310208   0.875000000000000   1.0000000
N2   N   0.055732255575601   0.777601077757734   0.375000000000000   1.0000000
N2   N   0.388601541623443   0.778896776524129   0.375000000000000   1.0000000
N2   N   0.221418971487181   0.277376152410259   0.375000000000000   1.0000000
N2   N   0.722772707091723   0.778585598836804   0.375000000000000   1.0000000
N2   N   0.555957180923077   0.277376152410259   0.375000000000000   1.0000000
N2   N   0.888775772540507   0.277551545081020   0.375000000000000   1.0000000
N2   N   0.055554736817270   0.444444577536169   0.875000000000000   1.0000000
N2   N   0.222221234094535   0.944442468189071   0.875000000000000   1.0000000
N2   N   0.555552752518606   0.944443042925968   0.875000000000000   1.0000000
N2   N   0.388881270001558   0.444452063331771   0.875000000000000   1.0000000
N2   N   0.888890290407360   0.944443042925968   0.875000000000000   1.0000000
N2   N   0.054436556809205   0.943038098432646   0.375000000000000   1.0000000
N2   N   0.722225294932108   0.444446122533585   0.875000000000000   1.0000000
N2   N   0.388601541623443   0.943038098432646   0.375000000000000   1.0000000
N2   N   0.218168170043167   0.445564377605393   0.375000000000000   1.0000000
N2   N   0.221285286150734   0.612048047182601   0.375000000000000   1.0000000
N2   N   0.574896161976416   0.454114747654872   0.375000000000000   1.0000000
N2   N   0.722366297833061   0.944732595666123   0.375000000000000   1.0000000
N2   N   0.890295234900682   0.444731791709886   0.375000000000000   1.0000000
N2   N   0.055555340516720   0.611110681033440   0.875000000000000   1.0000000
N2   N   0.222220827601476   0.111108038401226   0.875000000000000   1.0000000
N2   N   0.722225294932108   0.611112505731860   0.875000000000000   1.0000000
N2   N   0.555553573023127   0.111110266456110   0.875000000000000   1.0000000
N2   N   0.888890510133180   0.111111921733261   0.875000000000000   1.0000000
B2   B   0.108402555090507   0.053013005802322   0.375000000000000   1.0000000
B2   B   0.617909626668624   0.561677059894844   0.375000000000000   1.0000000
B2   B   0.444610450711814   0.053013005802322   0.375000000000000   1.0000000
B2   B   0.945275714049427   0.555805909358281   0.375000000000000   1.0000000
B2   B   0.777777777777779   0.055555555555557   0.375000000000000   1.0000000
B2   B   0.111111111111114   0.722222222222221   0.875000000000000   1.0000000
B2   B   0.444442018579860   0.722212082218152   0.875000000000000   1.0000000
B2   B   0.277798082899997   0.222237066617658   0.875000000000000   1.0000000
B2   B   0.777770063638292   0.722212082218152   0.875000000000000   1.0000000
B2   B   0.611102557034893   0.222230776298443   0.875000000000000   1.0000000
B2   B   0.944450219435825   0.222225762252449   0.875000000000000   1.0000000
B2   B   0.277527423975054   0.722803138024483   0.375000000000000   1.0000000
B2   B   0.110172258944093   0.221752796138711   0.375000000000000   1.0000000
B2   B   0.443767433226220   0.215423706664712   0.375000000000000   1.0000000
B2   B   0.611580537194624   0.723161074389244   0.375000000000000   1.0000000
B2   B   0.945275714049427   0.722803138024483   0.375000000000000   1.0000000
B2   B   0.777891748342412   0.221847308821181   0.375000000000000   1.0000000
B2   B   0.111112918338323   0.888892265956941   0.875000000000000   1.0000000
B2   B   0.444444142597057   0.888888737965194   0.875000000000000   1.0000000
B2   B   0.277798082899997   0.388894349615668   0.875000000000000   1.0000000
B2   B   0.611096266715677   0.388894349615668   0.875000000000000   1.0000000
B2   B   0.777775542816625   0.888883113897504   0.875000000000000   1.0000000
B2   B   0.944444595368135   0.388889190736271   0.875000000000000   1.0000000
B2   B   0.108402555090507   0.388722882621514   0.375000000000000   1.0000000
B2   B   0.277527423975054   0.888057619283901   0.375000000000000   1.0000000
B2   B   0.611486024512155   0.889377772854557   0.375000000000000   1.0000000
B2   B   0.944294769293109   0.889038564040220   0.375000000000000   1.0000000
B2   B   0.780320327531015   0.388722882621514   0.375000000000000   1.0000000
B2   B   0.277782743713525   0.555550589619810   0.875000000000000   1.0000000
B2   B   0.111121251115183   0.055563269695043   0.875000000000000   1.0000000
B2   B   0.611096266715677   0.555535250433340   0.875000000000000   1.0000000
B2   B   0.444442018579860   0.055563269695043   0.875000000000000   1.0000000
B2   B   0.944441067376387   0.555553985714711   0.875000000000000   1.0000000
B2   B   0.110530195308853   0.555805909358281   0.375000000000000   1.0000000
B2   B   0.777777777777779   0.055555555555557   0.875000000000000   1.0000000
B2   B   0.276340436644549   0.052680873289098   0.375000000000000   1.0000000
B2   B   0.443767433226220   0.561677059894844   0.375000000000000   1.0000000
B2   B   0.780652460044238   0.556992896688787   0.375000000000000   1.0000000
B2   B   0.611486024512155   0.055441584990924   0.375000000000000   1.0000000
B2   B   0.444438983717661   0.555535250433340   0.875000000000000   1.0000000
B2   B   0.943955560478771   0.055441584990924   0.375000000000000   1.0000000
B2   B   0.277779347618625   0.722220414995011   0.875000000000000   1.0000000
B2   B   0.111128219263557   0.222230776298443   0.875000000000000   1.0000000
B2   B   0.444438983717661   0.222237066617658   0.875000000000000   1.0000000
B2   B   0.611102557034893   0.722205114069778   0.875000000000000   1.0000000
B2   B   0.944441067376387   0.722220414995011   0.875000000000000   1.0000000
B2   B   0.777775542816625   0.222225762252449   0.875000000000000   1.0000000
B2   B   0.111111111111114   0.722222222222221   0.375000000000000   1.0000000
B2   B   0.444610450711814   0.724930778242829   0.375000000000000   1.0000000
B2   B   0.271656273438493   0.215423706664712   0.375000000000000   1.0000000
B2   B   0.780320327531015   0.724930778242829   0.375000000000000   1.0000000
B2   B   0.611580537194624   0.221752796138711   0.375000000000000   1.0000000
B2   B   0.943955560478771   0.221847308821181   0.375000000000000   1.0000000
B2   B   0.111121251115183   0.388891314753468   0.875000000000000   1.0000000
B2   B   0.277779347618625   0.888892265956941   0.875000000000000   1.0000000
B2   B   0.611107571080887   0.888883113897504   0.875000000000000   1.0000000
B2   B   0.444444444444443   0.388888888888886   0.875000000000000   1.0000000
B2   B   0.944444595368135   0.888888737965194   0.875000000000000   1.0000000
B2   B   0.110530195308853   0.888057619283901   0.375000000000000   1.0000000
B2   B   0.777770063638292   0.388891314753468   0.875000000000000   1.0000000
B2   B   0.444743794747111   0.889038564040220   0.375000000000000   1.0000000
B2   B   0.271656273438493   0.389565900107109   0.375000000000000   1.0000000
B2   B   0.276340436644549   0.556992896688787   0.375000000000000   1.0000000
B2   B   0.617909626668624   0.389565900107109   0.375000000000000   1.0000000
B2   B   0.777891748342412   0.889377772854557   0.375000000000000   1.0000000
B2   B   0.944294769293109   0.388589538586218   0.375000000000000   1.0000000
B2   B   0.111112918338323   0.555553985714711   0.875000000000000   1.0000000
B2   B   0.277782743713525   0.055565487427050   0.875000000000000   1.0000000
B2   B   0.777767845906286   0.555550589619810   0.875000000000000   1.0000000
B2   B   0.611107571080887   0.055557790516712   0.875000000000000   1.0000000
B2   B   0.944450219435825   0.055557790516712   0.875000000000000   1.0000000
B2   B   0.055556654300180   0.111122417186196   0.125041186351089   1.0000000
B2   B   0.555535484632273   0.611070969264546   0.124875781564487   1.0000000
B2   B   0.388917284493437   0.111182260119375   0.125097957415371   1.0000000
B2   B   0.888856760722563   0.611095047027953   0.125027045890999   1.0000000
B2   B   0.722223543716858   0.111109789616479   0.124990124242645   1.0000000
B2   B   0.055552139017038   0.777781194316298   0.625006008187633   1.0000000
B2   B   0.388902640647908   0.777772416360771   0.624984069487444   1.0000000
B2   B   0.222262364068789   0.277797848701062   0.625124218435515   1.0000000
B2   B   0.722210916147139   0.777776679033156   0.624958813648910   1.0000000
B2   B   0.555535484632273   0.277797848701062   0.625124218435515   1.0000000
B2   B   0.888884077921385   0.277768155842777   0.625012264860055   1.0000000
B2   B   0.222229055299259   0.777781194316298   0.124993991812367   1.0000000
B2   B   0.055556654300180   0.277767570447321   0.125041186351089   1.0000000
B2   B   0.388979620078254   0.277959240156517   0.123510242728637   1.0000000
B2   B   0.555565762886015   0.777776679033156   0.125041186351089   1.0000000
B2   B   0.888869775712856   0.777772416360771   0.125015930512556   1.0000000
B2   B   0.722210916147139   0.277767570447321   0.125041186351089   1.0000000
B2   B   0.055560916972565   0.944463557620473   0.624984069487444   1.0000000
B2   B   0.388902640647908   0.944463557620473   0.624984069487444   1.0000000
B2   B   0.222264975625931   0.444416048839891   0.624902042584629   1.0000000
B2   B   0.555374093176820   0.444353713255074   0.626489757271363   1.0000000
B2   B   0.722223543716858   0.944447087433713   0.625009875757355   1.0000000
B2   B   0.888869775712856   0.444430692685421   0.624984069487444   1.0000000
B2   B   0.055560916972565   0.444430692685421   0.125015930512556   1.0000000
B2   B   0.222238286305383   0.944476572610766   0.125027045890999   1.0000000
B2   B   0.555565177490559   0.944449255411944   0.124987735139945   1.0000000
B2   B   0.388979620078254   0.444353713255074   0.123510242728637   1.0000000
B2   B   0.888884077921385   0.944449255411944   0.124987735139945   1.0000000
B2   B   0.722151073213961   0.444416048839892   0.125097957415371   1.0000000
B2   B   0.222238286305383   0.611095047027953   0.624972954109001   1.0000000
B2   B   0.055556654300180   0.111122417186196   0.624958813648910   1.0000000
B2   B   0.555535484632273   0.611070969264546   0.625124218435515   1.0000000
B2   B   0.388917284493437   0.111182260119375   0.624902042584629   1.0000000
B2   B   0.888856760722563   0.611095047027953   0.624972954109001   1.0000000
B2   B   0.055552139017038   0.611104278034077   0.124993991812367   1.0000000
B2   B   0.722223543716858   0.111109789616479   0.625009875757355   1.0000000
B2   B   0.222264975625931   0.111182260119375   0.125097957415371   1.0000000
B2   B   0.388917284493437   0.611068357707405   0.125097957415371   1.0000000
B2   B   0.722151073213961   0.611068357707405   0.125097957415371   1.0000000
B2   B   0.555565762886015   0.111122417186196   0.125041186351089   1.0000000
B2   B   0.388917284493437   0.611068357707405   0.624902042584629   1.0000000
B2   B   0.888886245899615   0.111109789616479   0.124990124242645   1.0000000
B2   B   0.222229055299259   0.777781194316298   0.625006008187633   1.0000000
B2   B   0.055556654300180   0.277767570447321   0.624958813648910   1.0000000
B2   B   0.388979620078254   0.277959240156517   0.626489757271363   1.0000000
B2   B   0.555565762886015   0.777776679033156   0.624958813648910   1.0000000
B2   B   0.888869775712856   0.777772416360771   0.624984069487444   1.0000000
B2   B   0.722210916147139   0.277767570447321   0.624958813648910   1.0000000
B2   B   0.055552139017038   0.777781194316298   0.124993991812367   1.0000000
B2   B   0.388902640647908   0.777772416360771   0.125015930512556   1.0000000
B2   B   0.222262364068789   0.277797848701062   0.124875781564487   1.0000000
B2   B   0.722210916147139   0.777776679033156   0.125041186351089   1.0000000
B2   B   0.555535484632273   0.277797848701062   0.124875781564487   1.0000000
B2   B   0.888884077921385   0.277768155842777   0.124987735139945   1.0000000
B2   B   0.055560916972565   0.444430692685421   0.624984069487444   1.0000000
B2   B   0.222238286305383   0.944476572610766   0.624972954109001   1.0000000
B2   B   0.555565177490559   0.944449255411944   0.625012264860055   1.0000000
B2   B   0.388979620078254   0.444353713255074   0.626489757271363   1.0000000
B2   B   0.888884077921385   0.944449255411944   0.625012264860055   1.0000000
B2   B   0.055560916972565   0.944463557620473   0.125015930512556   1.0000000
B2   B   0.722151073213961   0.444416048839891   0.624902042584629   1.0000000
B2   B   0.388902640647908   0.944463557620473   0.125015930512556   1.0000000
B2   B   0.222264975625931   0.444416048839891   0.125097957415371   1.0000000
B2   B   0.222238286305383   0.611095047027953   0.125027045890999   1.0000000
B2   B   0.555374093176820   0.444353713255074   0.123510242728637   1.0000000
B2   B   0.722223543716858   0.944447087433713   0.124990124242645   1.0000000
B2   B   0.888869775712856   0.444430692685421   0.125015930512556   1.0000000
B2   B   0.055552139017038   0.611104278034077   0.625006008187633   1.0000000
B2   B   0.222264975625931   0.111182260119375   0.624902042584629   1.0000000
B2   B   0.722151073213961   0.611068357707405   0.624902042584629   1.0000000
B2   B   0.555565762886015   0.111122417186196   0.624958813648910   1.0000000
B2   B   0.888886245899615   0.111109789616479   0.625009875757355   1.0000000


