data_1
_audit_creation_method   'vasp2cif'
_cell_length_a    14.93631414619966
_cell_length_b    14.936314146199727
_cell_length_c    13.341276283792837
_cell_angle_alpha    90.0
_cell_angle_beta    90.0
_cell_angle_gamma    119.99999999999984

_symmetry_space_group_name_H-M    'P 1'
loop_
_atom_site_label
_atom_site_type_symbol
_atom_site_fract_x
_atom_site_fract_y
_atom_site_fract_z
_atom_site_occupancy
S2   S   0.444444444444443   0.388888888888886   0.375000000000000   1.0000000
N2   N   0.111109090778534   0.055545710643129   0.125158885343278   1.0000000
N2   N   0.611107324263190   0.555563559032028   0.125391487877766   1.0000000
N2   N   0.444436619864595   0.055545710643129   0.125158885343278   1.0000000
N2   N   0.944452576353478   0.555563291077184   0.125116188539116   1.0000000
N2   N   0.777777777777779   0.055555555555557   0.125089266506160   1.0000000
N2   N   0.111111111111114   0.722222222222221   0.624901594638131   1.0000000
N2   N   0.444436619864595   0.722224242554802   0.624841114656722   1.0000000
N2   N   0.277769774301308   0.222226009070145   0.624608512122234   1.0000000
N2   N   0.777787622690206   0.722224242554802   0.624841114656722   1.0000000
N2   N   0.611117491552887   0.222215841780449   0.624838416620472   1.0000000
N2   N   0.944443671983307   0.222228264380589   0.624898324562118   1.0000000
N2   N   0.277770042256152   0.722222618609629   0.125116188539116   1.0000000
N2   N   0.111098350227569   0.222215841780449   0.125161583379528   1.0000000
N2   N   0.444456234768837   0.222226009070145   0.125391487877766   1.0000000
N2   N   0.611117491552887   0.722234983105767   0.125161583379528   1.0000000
N2   N   0.944452576353478   0.722222618609629   0.125116188539116   1.0000000
N2   N   0.777784592397282   0.222228264380589   0.125101675437882   1.0000000
N2   N   0.111110714723707   0.888880756979851   0.624883811460884   1.0000000
N2   N   0.444432805859310   0.888883069596319   0.624893623602187   1.0000000
N2   N   0.277769774301308   0.388877098564491   0.624608512122234   1.0000000
N2   N   0.611107324263190   0.388877098564491   0.624608512122234   1.0000000
N2   N   0.777784592397282   0.888889661350021   0.624898324562118   1.0000000
N2   N   0.944450263737009   0.388900527474018   0.624893623602187   1.0000000
N2   N   0.111109090778534   0.388896713468733   0.125158885343278   1.0000000
N2   N   0.277770042256152   0.888880756979851   0.125116188539116   1.0000000
N2   N   0.611105068952747   0.888889661350021   0.125101675437882   1.0000000
N2   N   0.444444444444443   0.388888888888886   0.125125622111294   1.0000000
N2   N   0.944450263737009   0.888883069596319   0.125106376397813   1.0000000
N2   N   0.777787622690206   0.388896713468733   0.125158885343278   1.0000000
N2   N   0.277774944140841   0.555558389192494   0.624798959424186   1.0000000
N2   N   0.111109090778534   0.055545710643129   0.624841114656722   1.0000000
N2   N   0.611107324263190   0.555563559032028   0.624608512122234   1.0000000
N2   N   0.444436619864595   0.055545710643129   0.624841114656722   1.0000000
N2   N   0.944452576353478   0.555563291077184   0.624883811460884   1.0000000
N2   N   0.111110714723707   0.555563291077184   0.125116188539116   1.0000000
N2   N   0.777777777777779   0.055555555555557   0.624910733493841   1.0000000
N2   N   0.277774944140841   0.055549888281683   0.125201040575814   1.0000000
N2   N   0.444456234768837   0.555563559032028   0.125391487877766   1.0000000
N2   N   0.777783445051653   0.555558389192494   0.125201040575814   1.0000000
N2   N   0.611105068952747   0.055548740936054   0.125101675437882   1.0000000
N2   N   0.444456234768837   0.555563559032028   0.624608512122234   1.0000000
N2   N   0.944443671983307   0.055548740936054   0.125101675437882   1.0000000
N2   N   0.277770042256152   0.722222618609629   0.624883811460884   1.0000000
N2   N   0.111098350227569   0.222215841780449   0.624838416620472   1.0000000
N2   N   0.444456234768837   0.222226009070145   0.624608512122234   1.0000000
N2   N   0.611117491552887   0.722234983105767   0.624838416620472   1.0000000
N2   N   0.944452576353478   0.722222618609629   0.624883811460884   1.0000000
N2   N   0.777784592397282   0.222228264380589   0.624898324562118   1.0000000
N2   N   0.111111111111114   0.722222222222221   0.125098405361869   1.0000000
N2   N   0.444436619864595   0.722224242554802   0.125158885343278   1.0000000
N2   N   0.277769774301308   0.222226009070145   0.125391487877766   1.0000000
N2   N   0.777787622690206   0.722224242554802   0.125158885343278   1.0000000
N2   N   0.611117491552887   0.222215841780449   0.125161583379528   1.0000000
N2   N   0.944443671983307   0.222228264380589   0.125101675437882   1.0000000
N2   N   0.111109090778534   0.388896713468733   0.624841114656722   1.0000000
N2   N   0.277770042256152   0.888880756979851   0.624883811460884   1.0000000
N2   N   0.611105068952747   0.888889661350021   0.624898324562118   1.0000000
N2   N   0.444444444444443   0.388888888888886   0.624874377888706   1.0000000
N2   N   0.944450263737009   0.888883069596319   0.624893623602187   1.0000000
N2   N   0.111110714723707   0.888880756979851   0.125116188539116   1.0000000
N2   N   0.777787622690206   0.388896713468733   0.624841114656722   1.0000000
N2   N   0.444432805859310   0.888883069596319   0.125106376397813   1.0000000
N2   N   0.277769774301308   0.388877098564491   0.125391487877766   1.0000000
N2   N   0.277774944140841   0.555558389192494   0.125201040575814   1.0000000
N2   N   0.611107324263190   0.388877098564491   0.125391487877766   1.0000000
N2   N   0.777784592397282   0.888889661350021   0.125101675437882   1.0000000
N2   N   0.944450263737009   0.388900527474018   0.125106376397813   1.0000000
N2   N   0.111110714723707   0.555563291077184   0.624883811460884   1.0000000
N2   N   0.277774944140841   0.055549888281683   0.624798959424186   1.0000000
N2   N   0.777783445051653   0.555558389192494   0.624798959424186   1.0000000
N2   N   0.611105068952747   0.055548740936054   0.624898324562118   1.0000000
N2   N   0.944443671983307   0.055548740936054   0.624898324562118   1.0000000
N2   N   0.054983547734751   0.110712730857492   0.375000000000000   1.0000000
N2   N   0.555963914616844   0.611927829233689   0.375000000000000   1.0000000
N2   N   0.388136215705724   0.108125117072215   0.375000000000000   1.0000000
N2   N   0.889958651209296   0.611645992271319   0.375000000000000   1.0000000
N2   N   0.722319303056517   0.111014030276819   0.375000000000000   1.0000000
N2   N   0.055553941630596   0.777779391702740   0.875000000000000   1.0000000
N2   N   0.388893602007582   0.777779617840209   0.875000000000000   1.0000000
N2   N   0.222222206081010   0.277777769707173   0.875000000000000   1.0000000
N2   N   0.722222160466802   0.777779993889851   0.875000000000000   1.0000000
N2   N   0.555555563626163   0.277777769707173   0.875000000000000   1.0000000
N2   N   0.888888352754572   0.277776705509151   0.875000000000000   1.0000000
N2   N   0.222040250164498   0.777686791748917   0.375000000000000   1.0000000
N2   N   0.054983547734751   0.277604150210594   0.375000000000000   1.0000000
N2   N   0.382601606872454   0.265203213744915   0.375000000000000   1.0000000
N2   N   0.555729183122741   0.778349785598585   0.375000000000000   1.0000000
N2   N   0.889656762016051   0.778411662068150   0.375000000000000   1.0000000
N2   N   0.722620602475843   0.277604150210594   0.375000000000000   1.0000000
N2   N   0.055553715493126   0.944447317500709   0.875000000000000   1.0000000
N2   N   0.388893602007582   0.944447317500709   0.875000000000000   1.0000000
N2   N   0.222223312349650   0.444440227922870   0.875000000000000   1.0000000
N2   N   0.555553994085167   0.444443663709248   0.875000000000000   1.0000000
N2   N   0.722222623514932   0.944445247029864   0.875000000000000   1.0000000
N2   N   0.888886015832620   0.444439731325746   0.875000000000000   1.0000000
N2   N   0.054921671265186   0.444578433281236   0.375000000000000   1.0000000
N2   N   0.221687341062016   0.943374682124032   0.375000000000000   1.0000000
N2   N   0.555702332745351   0.944517833039340   0.375000000000000   1.0000000
N2   N   0.382601606872454   0.450731726460875   0.375000000000000   1.0000000
N2   N   0.888815500293989   0.944517833039340   0.375000000000000   1.0000000
N2   N   0.725208216261120   0.445197117627604   0.375000000000000   1.0000000
N2   N   0.222224403442588   0.611108929890747   0.875000000000000   1.0000000
N2   N   0.055553339443485   0.111111172866534   0.875000000000000   1.0000000
N2   N   0.555555563626163   0.611111127252325   0.875000000000000   1.0000000
N2   N   0.388893105410459   0.111116417760116   0.875000000000000   1.0000000
N2   N   0.888884526448153   0.611108929890747   0.875000000000000   1.0000000
N2   N   0.055646541584419   0.611293083168837   0.375000000000000   1.0000000
N2   N   0.722222623514932   0.111110709818403   0.875000000000000   1.0000000
N2   N   0.219988901366484   0.108125117072215   0.375000000000000   1.0000000
N2   N   0.388136215705724   0.613344431966852   0.375000000000000   1.0000000
N2   N   0.725208216261120   0.613344431966852   0.375000000000000   1.0000000
N2   N   0.555729183122741   0.110712730857492   0.375000000000000   1.0000000
N2   N   0.388893105410459   0.611110020983686   0.875000000000000   1.0000000
N2   N   0.888694727220295   0.111014030276819   0.375000000000000   1.0000000
N2   N   0.222225450072144   0.777779391702740   0.875000000000000   1.0000000
N2   N   0.055553339443485   0.277775499910287   0.875000000000000   1.0000000
N2   N   0.388889669624081   0.277779339248169   0.875000000000000   1.0000000
N2   N   0.555557833423049   0.777779993889851   0.875000000000000   1.0000000
N2   N   0.888886015832620   0.777779617840209   0.875000000000000   1.0000000
N2   N   0.722222160466802   0.277775499910287   0.875000000000000   1.0000000
N2   N   0.055646541584419   0.777686791748917   0.375000000000000   1.0000000
N2   N   0.388754900052092   0.778411662068150   0.375000000000000   1.0000000
N2   N   0.221405504099647   0.277369418716491   0.375000000000000   1.0000000
N2   N   0.722620602475843   0.778349785598585   0.375000000000000   1.0000000
N2   N   0.555963914616844   0.277369418716491   0.375000000000000   1.0000000
N2   N   0.888815500293989   0.277631000587985   0.375000000000000   1.0000000
N2   N   0.055553715493126   0.444439731325746   0.875000000000000   1.0000000
N2   N   0.222224403442588   0.944448806885176   0.875000000000000   1.0000000
N2   N   0.555556627824185   0.944444980578757   0.875000000000000   1.0000000
N2   N   0.388889669624081   0.444443663709248   0.875000000000000   1.0000000
N2   N   0.888888352754572   0.944444980578757   0.875000000000000   1.0000000
N2   N   0.054921671265186   0.943676571317277   0.375000000000000   1.0000000
N2   N   0.722216915573220   0.444440227922870   0.875000000000000   1.0000000
N2   N   0.388754900052092   0.943676571317277   0.375000000000000   1.0000000
N2   N   0.219988901366484   0.445197117627604   0.375000000000000   1.0000000
N2   N   0.221687341062016   0.611645992271319   0.375000000000000   1.0000000
N2   N   0.568130119588421   0.450731726460875   0.375000000000000   1.0000000
N2   N   0.722319303056517   0.944638606113033   0.375000000000000   1.0000000
N2   N   0.889656762016051   0.444578433281236   0.375000000000000   1.0000000
N2   N   0.055553941630596   0.611107883261192   0.875000000000000   1.0000000
N2   N   0.222223312349650   0.111116417760116   0.875000000000000   1.0000000
N2   N   0.722216915573220   0.611110020983686   0.875000000000000   1.0000000
N2   N   0.555557833423049   0.111111172866534   0.875000000000000   1.0000000
N2   N   0.888888086303464   0.111110709818403   0.875000000000000   1.0000000
B2   B   0.109013960922010   0.053744421203544   0.375000000000000   1.0000000
B2   B   0.616432007107379   0.561570612366656   0.375000000000000   1.0000000
B2   B   0.444730460281534   0.053744421203544   0.375000000000000   1.0000000
B2   B   0.945041187418659   0.555698035805001   0.375000000000000   1.0000000
B2   B   0.777777777777779   0.055555555555557   0.375000000000000   1.0000000
B2   B   0.111111111111114   0.722222222222221   0.875000000000000   1.0000000
B2   B   0.444456644219857   0.722254816675997   0.875000000000000   1.0000000
B2   B   0.277744171018649   0.222195336658130   0.875000000000000   1.0000000
B2   B   0.777798172456140   0.722254816675997   0.875000000000000   1.0000000
B2   B   0.611133640112108   0.222199693221227   0.875000000000000   1.0000000
B2   B   0.944421195794893   0.222207328176932   0.875000000000000   1.0000000
B2   B   0.277635297528334   0.722676484946993   0.375000000000000   1.0000000
B2   B   0.109405081107278   0.221369207220304   0.375000000000000   1.0000000
B2   B   0.445138605259277   0.216901326225957   0.375000000000000   1.0000000
B2   B   0.611964126113032   0.723928252226057   0.375000000000000   1.0000000
B2   B   0.945041187418659   0.722676484946993   0.375000000000000   1.0000000
B2   B   0.777985186371763   0.221832956102480   0.375000000000000   1.0000000
B2   B   0.111100863629139   0.888880612715822   0.875000000000000   1.0000000
B2   B   0.444458816849243   0.888896075091286   0.875000000000000   1.0000000
B2   B   0.277744171018649   0.388882167693847   0.875000000000000   1.0000000
B2   B   0.611137996675205   0.388882167693847   0.875000000000000   1.0000000
B2   B   0.777786132382039   0.888912137538435   0.875000000000000   1.0000000
B2   B   0.944437258242043   0.388874516484086   0.875000000000000   1.0000000
B2   B   0.109013960922010   0.388602873051795   0.375000000000000   1.0000000
B2   B   0.277635297528334   0.888292145914670   0.375000000000000   1.0000000
B2   B   0.611500377230856   0.889485563602611   0.375000000000000   1.0000000
B2   B   0.944295933551375   0.889037399781954   0.375000000000000   1.0000000
B2   B   0.779588912129792   0.388602873051795   0.375000000000000   1.0000000
B2   B   0.277764842527941   0.555568490805395   0.875000000000000   1.0000000
B2   B   0.111078516657339   0.055535160877196   0.875000000000000   1.0000000
B2   B   0.611137996675205   0.555589162314687   0.875000000000000   1.0000000
B2   B   0.444456644219857   0.055535160877196   0.875000000000000   1.0000000
B2   B   0.944452720617507   0.555553584246646   0.875000000000000   1.0000000
B2   B   0.110656848386343   0.555698035805001   0.375000000000000   1.0000000
B2   B   0.777777777777779   0.055555555555557   0.875000000000000   1.0000000
B2   B   0.276657307702275   0.053314615404550   0.375000000000000   1.0000000
B2   B   0.445138605259277   0.561570612366656   0.375000000000000   1.0000000
B2   B   0.780018717928786   0.556676025631061   0.375000000000000   1.0000000
B2   B   0.611500377230856   0.055348146961573   0.375000000000000   1.0000000
B2   B   0.444451165639481   0.555589162314687   0.875000000000000   1.0000000
B2   B   0.943847769730717   0.055348146961573   0.375000000000000   1.0000000
B2   B   0.277779749086690   0.722232469704197   0.875000000000000   1.0000000
B2   B   0.111066053109125   0.222199693221227   0.875000000000000   1.0000000
B2   B   0.444451165639481   0.222195336658130   0.875000000000000   1.0000000
B2   B   0.611133640112108   0.722267280224210   0.875000000000000   1.0000000
B2   B   0.944452720617507   0.722232469704197   0.875000000000000   1.0000000
B2   B   0.777786132382039   0.222207328176932   0.875000000000000   1.0000000
B2   B   0.111111111111114   0.722222222222221   0.375000000000000   1.0000000
B2   B   0.444730460281534   0.724319372411326   0.375000000000000   1.0000000
B2   B   0.271762720966680   0.216901326225957   0.375000000000000   1.0000000
B2   B   0.779588912129792   0.724319372411326   0.375000000000000   1.0000000
B2   B   0.611964126113032   0.221369207220304   0.375000000000000   1.0000000
B2   B   0.943847769730717   0.221832956102480   0.375000000000000   1.0000000
B2   B   0.111078516657339   0.388876689113471   0.875000000000000   1.0000000
B2   B   0.277779749086690   0.888880612715822   0.875000000000000   1.0000000
B2   B   0.611126005156403   0.888912137538435   0.875000000000000   1.0000000
B2   B   0.444444444444443   0.388888888888886   0.875000000000000   1.0000000
B2   B   0.944437258242043   0.888896075091286   0.875000000000000   1.0000000
B2   B   0.110656848386343   0.888292145914670   0.375000000000000   1.0000000
B2   B   0.777798172456140   0.388876689113471   0.875000000000000   1.0000000
B2   B   0.444741466230579   0.889037399781954   0.375000000000000   1.0000000
B2   B   0.271762720966680   0.388194728074051   0.375000000000000   1.0000000
B2   B   0.276657307702275   0.556676025631061   0.375000000000000   1.0000000
B2   B   0.616432007107379   0.388194728074051   0.375000000000000   1.0000000
B2   B   0.777985186371763   0.889485563602611   0.375000000000000   1.0000000
B2   B   0.944295933551375   0.388591867102749   0.375000000000000   1.0000000
B2   B   0.111100863629139   0.555553584246646   0.875000000000000   1.0000000
B2   B   0.277764842527941   0.055529685055882   0.875000000000000   1.0000000
B2   B   0.777803648277454   0.555568490805395   0.875000000000000   1.0000000
B2   B   0.611126005156403   0.055547200951297   0.875000000000000   1.0000000
B2   B   0.944421195794893   0.055547200951297   0.875000000000000   1.0000000
B2   B   0.055470562293975   0.111040172856073   0.124867857646959   1.0000000
B2   B   0.555627012099659   0.611254024199317   0.124779432918693   1.0000000
B2   B   0.388840768648010   0.110957180618635   0.124856331417856   1.0000000
B2   B   0.888993180009763   0.611163256671553   0.124882367923141   1.0000000
B2   B   0.722234996046085   0.111098337287250   0.124906756993339   1.0000000
B2   B   0.055570897578916   0.777762435754420   0.625096018616728   1.0000000
B2   B   0.388853313284948   0.777811449945836   0.625111383166635   1.0000000
B2   B   0.222079309134019   0.277706321233677   0.625220567081308   1.0000000
B2   B   0.722293160477263   0.777862771039360   0.625132142353041   1.0000000
B2   B   0.555627012099659   0.277706321233677   0.625220567081308   1.0000000
B2   B   0.888891896180773   0.277783792361553   0.625096217775852   1.0000000
B2   B   0.222191538175504   0.777762435754420   0.124903981383272   1.0000000
B2   B   0.055470562293975   0.277763722771238   0.124867857646959   1.0000000
B2   B   0.388825377520523   0.277650755041053   0.124539120924249   1.0000000
B2   B   0.555569610562097   0.777862771039360   0.124867857646959   1.0000000
B2   B   0.888958136660881   0.777811449945836   0.124888616833365   1.0000000
B2   B   0.722293160477263   0.277763722771238   0.124867857646959   1.0000000
B2   B   0.055521883387500   0.944375196672448   0.625111383166635   1.0000000
B2   B   0.388853313284948   0.944375196672448   0.625111383166635   1.0000000
B2   B   0.222116411970618   0.444492564685319   0.625143668582144   1.0000000
B2   B   0.555682578292283   0.444507955812806   0.625460879075751   1.0000000
B2   B   0.722234996046085   0.944469992092171   0.625093243006661   1.0000000
B2   B   0.888958136660881   0.444480020048381   0.625111383166635   1.0000000
B2   B   0.055521883387500   0.444480020048381   0.124888616833365   1.0000000
B2   B   0.222170076661783   0.944340153323566   0.124882367923141   1.0000000
B2   B   0.555549540971783   0.944441437152556   0.124903782224148   1.0000000
B2   B   0.388825377520523   0.444507955812806   0.124539120924249   1.0000000
B2   B   0.888891896180773   0.944441437152556   0.124903782224148   1.0000000
B2   B   0.722376152714701   0.444492564685319   0.124856331417856   1.0000000
B2   B   0.222170076661783   0.611163256671553   0.625117632076859   1.0000000
B2   B   0.055470562293975   0.111040172856073   0.625132142353041   1.0000000
B2   B   0.555627012099659   0.611254024199317   0.625220567081308   1.0000000
B2   B   0.388840768648010   0.110957180618635   0.625143668582144   1.0000000
B2   B   0.888993180009763   0.611163256671553   0.625117632076859   1.0000000
B2   B   0.055570897578916   0.611141795157832   0.124903981383272   1.0000000
B2   B   0.722234996046085   0.111098337287250   0.625093243006661   1.0000000
B2   B   0.222116411970618   0.110957180618635   0.124856331417856   1.0000000
B2   B   0.388840768648010   0.611216921362717   0.124856331417856   1.0000000
B2   B   0.722376152714701   0.611216921362717   0.124856331417856   1.0000000
B2   B   0.555569610562097   0.111040172856073   0.124867857646959   1.0000000
B2   B   0.388840768648010   0.611216921362717   0.625143668582144   1.0000000
B2   B   0.888863341241158   0.111098337287250   0.124906756993339   1.0000000
B2   B   0.222191538175504   0.777762435754420   0.625096018616728   1.0000000
B2   B   0.055470562293975   0.277763722771238   0.625132142353041   1.0000000
B2   B   0.388825377520523   0.277650755041053   0.625460879075751   1.0000000
B2   B   0.555569610562097   0.777862771039360   0.625132142353041   1.0000000
B2   B   0.888958136660881   0.777811449945836   0.625111383166635   1.0000000
B2   B   0.722293160477263   0.277763722771238   0.625132142353041   1.0000000
B2   B   0.055570897578916   0.777762435754420   0.124903981383272   1.0000000
B2   B   0.388853313284948   0.777811449945836   0.124888616833365   1.0000000
B2   B   0.222079309134019   0.277706321233677   0.124779432918693   1.0000000
B2   B   0.722293160477263   0.777862771039360   0.124867857646959   1.0000000
B2   B   0.555627012099659   0.277706321233677   0.124779432918693   1.0000000
B2   B   0.888891896180773   0.277783792361553   0.124903782224148   1.0000000
B2   B   0.055521883387500   0.444480020048381   0.625111383166635   1.0000000
B2   B   0.222170076661783   0.944340153323566   0.625117632076859   1.0000000
B2   B   0.555549540971783   0.944441437152556   0.625096217775852   1.0000000
B2   B   0.388825377520523   0.444507955812806   0.625460879075751   1.0000000
B2   B   0.888891896180773   0.944441437152556   0.625096217775852   1.0000000
B2   B   0.055521883387500   0.944375196672448   0.124888616833365   1.0000000
B2   B   0.722376152714701   0.444492564685319   0.625143668582144   1.0000000
B2   B   0.388853313284948   0.944375196672448   0.124888616833365   1.0000000
B2   B   0.222116411970618   0.444492564685319   0.124856331417856   1.0000000
B2   B   0.222170076661783   0.611163256671553   0.124882367923141   1.0000000
B2   B   0.555682578292283   0.444507955812806   0.124539120924249   1.0000000
B2   B   0.722234996046085   0.944469992092171   0.124906756993339   1.0000000
B2   B   0.888958136660881   0.444480020048381   0.124888616833365   1.0000000
B2   B   0.055570897578916   0.611141795157832   0.625096018616728   1.0000000
B2   B   0.222116411970618   0.110957180618635   0.625143668582144   1.0000000
B2   B   0.722376152714701   0.611216921362717   0.625143668582144   1.0000000
B2   B   0.555569610562097   0.111040172856073   0.625132142353041   1.0000000
B2   B   0.888863341241158   0.111098337287250   0.625093243006661   1.0000000


