data_1
_audit_creation_method   'vasp2cif'
_cell_length_a    17.52789999999977
_cell_length_b    17.52789999999977
_cell_length_c    15.0
_cell_angle_alpha    90.0
_cell_angle_beta    90.0
_cell_angle_gamma    119.99999999999916

_symmetry_space_group_name_H-M    'P 1'
loop_
_atom_site_label
_atom_site_type_symbol
_atom_site_fract_x
_atom_site_fract_y
_atom_site_fract_z
_atom_site_occupancy
B2   B   0.906046909402226   0.953218235305221   0.110991756049761   1.0000000
B2   B   0.904400024985640   0.094928135891196   0.111032408382441   1.0000000
B2   B   0.904037559385408   0.237657402764746   0.111037311261360   1.0000000
B2   B   0.904141096922021   0.380709411135060   0.110973675773980   1.0000000
B2   B   0.905750817128001   0.524072953522747   0.111007658521875   1.0000000
B2   B   0.906861337732551   0.667619618346846   0.111065050480987   1.0000000
B2   B   0.906342578064060   0.810107034173248   0.111026389076585   1.0000000
B2   B   0.048381044577670   0.952808968661610   0.110979224370674   1.0000000
B2   B   0.047912777303696   0.095392537805756   0.110990558643910   1.0000000
B2   B   0.046839220022714   0.237403356405291   0.110982443109920   1.0000000
B2   B   0.046642232909293   0.380316297293825   0.111003299196243   1.0000000
B2   B   0.047299305823949   0.523693541918907   0.110988518889895   1.0000000
B2   B   0.048330697231061   0.666967785463371   0.111011067575555   1.0000000
B2   B   0.048681945114420   0.810069049749516   0.110978800631066   1.0000000
B2   B   0.190822418617554   0.952499000298136   0.110978547977196   1.0000000
B2   B   0.190808721151437   0.095467514222712   0.111032106017106   1.0000000
B2   B   0.190132038986574   0.237968389418869   0.110968487966623   1.0000000
B2   B   0.188797605384151   0.379590431517685   0.110964760500194   1.0000000
B2   B   0.188640880585869   0.523213778619302   0.111051137082174   1.0000000
B2   B   0.190190367206887   0.666662007648937   0.111063154551165   1.0000000
B2   B   0.190898567330691   0.809710101308096   0.110977277612231   1.0000000
B2   B   0.333535355072816   0.952375224134276   0.111001470034313   1.0000000
B2   B   0.333154995572633   0.094988829043815   0.111062024765651   1.0000000
B2   B   0.333311931757376   0.237826679165135   0.111078806211501   1.0000000
B2   B   0.332565021711954   0.381274800255628   0.111081617130381   1.0000000
B2   B   0.328554841306128   0.522036554328584   0.111040174075594   1.0000000
B2   B   0.331845948270194   0.666019552376890   0.111090085163823   1.0000000
B2   B   0.333411029957135   0.809291785299384   0.111060297345776   1.0000000
B2   B   0.476102559224545   0.951547292170668   0.110984183375747   1.0000000
B2   B   0.476065376913399   0.096114787698353   0.110979057693561   1.0000000
B2   B   0.474964826006641   0.240102143879865   0.111065402941873   1.0000000
B2   B   0.470795426655114   0.659220052326208   0.111138414864290   1.0000000
B2   B   0.475671206522003   0.806265518194393   0.111024604725271   1.0000000
B2   B   0.618520669497627   0.951324617693917   0.110996463075787   1.0000000
B2   B   0.618548473372751   0.095159595897602   0.110964304368605   1.0000000
B2   B   0.618530161458046   0.238991744982303   0.110995641118191   1.0000000
B2   B   0.617963705663446   0.383611725157453   0.110999458306376   1.0000000
B2   B   0.644901446741991   0.675352296180381   0.111059126619351   1.0000000
B2   B   0.618915898470408   0.807810373118216   0.110996787230834   1.0000000
B2   B   0.761769818796004   0.951984866650960   0.110975192976745   1.0000000
B2   B   0.761259831765338   0.094831611606373   0.111056456310147   1.0000000
B2   B   0.761249886732004   0.238066549962071   0.111034148392222   1.0000000
B2   B   0.761302884047546   0.381325187334081   0.110993960948720   1.0000000
B2   B   0.765348008206243   0.526196470789785   0.110977769290673   1.0000000
B2   B   0.762992214570753   0.665383048071051   0.111044803150901   1.0000000
B2   B   0.765991897884897   0.811642810794040   0.110987656373244   1.0000000
C2   C   0.474294404470916   0.384497727443563   0.111291018318780   1.0000000
C2   C   0.468739691692795   0.526018965194164   0.111439933428492   1.0000000
C2   C   0.511106643028930   0.478184547564378   0.111441100065427   1.0000000
N2   N   0.953306461332535   0.905428141550251   0.110971927071693   1.0000000
N2   N   0.952872271370167   0.048110460052456   0.110989674372967   1.0000000
N2   N   0.951859089183576   0.190060391956942   0.111012298027597   1.0000000
N2   N   0.951734354637201   0.332863570000658   0.110983685054733   1.0000000
N2   N   0.952551284645636   0.475920109188338   0.110948265155633   1.0000000
N2   N   0.953621886874493   0.619341917164633   0.111015868820722   1.0000000
N2   N   0.953938815686534   0.762767159276441   0.111008589799285   1.0000000
N2   N   0.096044273292131   0.905344522106196   0.110943729723793   1.0000000
N2   N   0.095970395782297   0.048257070844227   0.110985337070772   1.0000000
N2   N   0.095496142612342   0.190674535086621   0.110949392627600   1.0000000
N2   N   0.094472104164794   0.332571985506469   0.110961377656198   1.0000000
N2   N   0.094468699696502   0.475627612255187   0.111000093801399   1.0000000
N2   N   0.095540395813934   0.618967961945593   0.110998650408834   1.0000000
N2   N   0.096091485411804   0.762265804501333   0.110955644884602   1.0000000
N2   N   0.238624775957895   0.905057052110667   0.110951532831675   1.0000000
N2   N   0.238514036831363   0.048130105247147   0.111027717171201   1.0000000
N2   N   0.239025123719824   0.191631914360111   0.111004698629235   1.0000000
N2   N   0.238309479257608   0.333429556628056   0.110951189041646   1.0000000
N2   N   0.235742099412630   0.474764581329853   0.110983269650262   1.0000000
N2   N   0.237527995728540   0.618401782827101   0.111075294334734   1.0000000
N2   N   0.238547849859189   0.761837815172527   0.111027820205077   1.0000000
N2   N   0.381118955298147   0.904392916843178   0.111002250736408   1.0000000
N2   N   0.381050137259431   0.048037907058067   0.111004850790907   1.0000000
N2   N   0.380730132615218   0.191327066705002   0.111064164897759   1.0000000
N2   N   0.383378589024969   0.335867002246271   0.111139676468783   1.0000000
N2   N   0.378619517096493   0.476734701441161   0.111111915578353   1.0000000
N2   N   0.378821681227503   0.616359281405090   0.111058229905546   1.0000000
N2   N   0.380960426871620   0.760526267441600   0.111054718694321   1.0000000
N2   N   0.523198851192327   0.902032558114386   0.110976559211604   1.0000000
N2   N   0.523288537385893   0.047472837838811   0.110931982511919   1.0000000
N2   N   0.522936842198468   0.192678980644485   0.110972525136823   1.0000000
N2   N   0.519943372319656   0.338736415773011   0.111129881899718   1.0000000
N2   N   0.522890342817324   0.754271453619887   0.111028988872664   1.0000000
N2   N   0.665610654574061   0.902711000662095   0.110966525578534   1.0000000
N2   N   0.665731965564904   0.046675998979314   0.110980080617131   1.0000000
N2   N   0.665692147182961   0.190633639541916   0.110980535894689   1.0000000
N2   N   0.664936153288178   0.333977369665620   0.110982644409166   1.0000000
N2   N   0.673015734818333   0.474105730227188   0.110784224352920   1.0000000
N2   N   0.668116830703835   0.615965377850356   0.111037841125318   1.0000000
N2   N   0.668697393100886   0.763194005839258   0.110972159327119   1.0000000
N2   N   0.810654377704162   0.905736154839442   0.110946873533343   1.0000000
N2   N   0.808867232139132   0.047030227343088   0.111014403379951   1.0000000
N2   N   0.808714646661055   0.190053673441328   0.111045308894673   1.0000000
N2   N   0.808691707281369   0.333169687484356   0.110980990592326   1.0000000
N2   N   0.810821036158720   0.476272450695475   0.110984789982603   1.0000000
N2   N   0.812524892508504   0.620434995149938   0.111037778659922   1.0000000
N2   N   0.811142475257333   0.762372614019243   0.111009286036657   1.0000000


