data_1
_audit_creation_method   'vasp2cif'
_cell_length_a    17.52789999999977
_cell_length_b    17.52789999999977
_cell_length_c    15.0
_cell_angle_alpha    90.0
_cell_angle_beta    90.0
_cell_angle_gamma    119.99999999999916

_symmetry_space_group_name_H-M    'P 1'
loop_
_atom_site_label
_atom_site_type_symbol
_atom_site_fract_x
_atom_site_fract_y
_atom_site_fract_z
_atom_site_occupancy
As2   As   0.495121248716295   0.504880153200710   0.168838748501532   1.0000000
B2   B   0.905646369144019   0.952819409851826   0.108910439739551   1.0000000
B2   B   0.904685239314592   0.095316781881405   0.109953159502655   1.0000000
B2   B   0.904337197864066   0.238165636578080   0.110407565050101   1.0000000
B2   B   0.904369767277873   0.381022325008725   0.110672010752821   1.0000000
B2   B   0.904999800726288   0.523841541275002   0.110354258735941   1.0000000
B2   B   0.906251472427409   0.666938846080482   0.108510413181088   1.0000000
B2   B   0.906652539681932   0.810337879409633   0.107457495783480   1.0000000
B2   B   0.048171544894211   0.951830476301785   0.110142540744048   1.0000000
B2   B   0.047182611344185   0.094355652051978   0.108910439739551   1.0000000
B2   B   0.046894288084671   0.237458561876422   0.108095501831759   1.0000000
B2   B   0.047248131114909   0.380499511234498   0.109291724554129   1.0000000
B2   B   0.048164604103208   0.523303479626467   0.110180831651869   1.0000000
B2   B   0.048732430423346   0.666150149800413   0.110386457348996   1.0000000
B2   B   0.048736602295341   0.809094455651406   0.110288732877838   1.0000000
B2   B   0.190907565544599   0.951265418900662   0.110288732877838   1.0000000
B2   B   0.189664141786370   0.093349481514058   0.107457495783480   1.0000000
B2   B   0.188554384295283   0.235831932057566   0.104343464538713   1.0000000
B2   B   0.189559427862217   0.379665195935401   0.107859122198634   1.0000000
B2   B   0.191511963289880   0.522659919750608   0.111518863844391   1.0000000
B2   B   0.191779499843308   0.665592302263760   0.111725064098315   1.0000000
B2   B   0.191459822398268   0.808542198797735   0.111065710464907   1.0000000
B2   B   0.333851871396586   0.951269590772664   0.110386457348996   1.0000000
B2   B   0.333063175116517   0.093750548768589   0.108510413181088   1.0000000
B2   B   0.330761319511187   0.234492462019856   0.104062619486660   1.0000000
B2   B   0.329383812444390   0.377272281678882   0.109093723846650   1.0000000
B2   B   0.335240550759896   0.521146295093892   0.118950500089028   1.0000000
B2   B   0.335181311156500   0.664820710040507   0.116195310494915   1.0000000
B2   B   0.334409718933245   0.808222521352696   0.111725064098315   1.0000000
B2   B   0.476698541570538   0.951837417092794   0.110180831651869   1.0000000
B2   B   0.476160479921995   0.095002220469714   0.110354258735941   1.0000000
B2   B   0.475186379425474   0.237829742472130   0.111132092863230   1.0000000
B2   B   0.469184648970886   0.375796617491550   0.117079996007110   1.0000000
B2   B   0.478855726103106   0.664761470437103   0.118950500089028   1.0000000
B2   B   0.477342101446390   0.808490057906123   0.111518863844391   1.0000000
B2   B   0.619502509961513   0.952753890081094   0.109291724554129   1.0000000
B2   B   0.618979696187280   0.095632253918125   0.110672010752821   1.0000000
B2   B   0.618488978135063   0.238766293598440   0.112818492291083   1.0000000
B2   B   0.617804776091219   0.382197245104785   0.116146742225603   1.0000000
B2   B   0.624205403704452   0.530817372226105   0.117079996007110   1.0000000
B2   B   0.622729739517121   0.670618208752616   0.109093723846650   1.0000000
B2   B   0.620336825260602   0.810442593333793   0.107859122198634   1.0000000
B2   B   0.762543459319588   0.953107733111332   0.108095501831759   1.0000000
B2   B   0.761836384617923   0.095664823331922   0.110407565050101   1.0000000
B2   B   0.761459222869583   0.238542798326415   0.111627687997669   1.0000000
B2   B   0.761235727597563   0.381513043060940   0.112818492291083   1.0000000
B2   B   0.762172278723874   0.524815641771517   0.111132092863230   1.0000000
B2   B   0.765509559176148   0.669240701685811   0.104062619486660   1.0000000
B2   B   0.764170089138430   0.811447636900721   0.104343464538713   1.0000000
N2   N   0.953361531342081   0.905099377512139   0.109350504692314   1.0000000
N2   N   0.952385341178445   0.047616060739561   0.110005829725664   1.0000000
N2   N   0.951848578394975   0.190367124249419   0.109790158621044   1.0000000
N2   N   0.951905366960660   0.333316558050836   0.110045959306587   1.0000000
N2   N   0.952542664055738   0.476151688451700   0.110271648709164   1.0000000
N2   N   0.953325934609203   0.618946971726706   0.109815080363403   1.0000000
N2   N   0.953647345156442   0.762007271703735   0.108704448437663   1.0000000
N2   N   0.095865191352591   0.904136210565415   0.110705041799736   1.0000000
N2   N   0.094902024405867   0.046639870575918   0.109350504692314   1.0000000
N2   N   0.093923457811714   0.189131869281614   0.106918360715752   1.0000000
N2   N   0.094365235919294   0.332548503268326   0.107961529594544   1.0000000
N2   N   0.095783945775282   0.475647654652273   0.109778152578417   1.0000000
N2   N   0.096292894274575   0.618456909358979   0.110556598927889   1.0000000
N2   N   0.096243871071511   0.761293389146144   0.110753542952049   1.0000000
N2   N   0.238708012771861   0.903757530846488   0.110753542952049   1.0000000
N2   N   0.237994130214263   0.046354056761572   0.108704448437663   1.0000000
N2   N   0.236254671492587   0.188019712373156   0.104096310875329   1.0000000
N2   N   0.235082153182255   0.330326575765938   0.104125238416723   1.0000000
N2   N   0.238949827322105   0.474772209289065   0.111663780227505   1.0000000
N2   N   0.239519727304849   0.617919832050470   0.113357350581210   1.0000000
N2   N   0.239133701134528   0.760867700783479   0.111497073443275   1.0000000
N2   N   0.381544492559020   0.903708507643417   0.110556598927889   1.0000000
N2   N   0.381054430191294   0.046675467308796   0.109815080363403   1.0000000
N2   N   0.380184028398332   0.189051722869088   0.107243090119536   1.0000000
N2   N   0.377018700419343   0.329240614606903   0.104534346948544   1.0000000
N2   N   0.378050613602311   0.469304877605446   0.121771291127407   1.0000000
N2   N   0.382962127862108   0.617039274055883   0.121440766860798   1.0000000
N2   N   0.382081569867529   0.760481674613157   0.113357350581210   1.0000000
N2   N   0.524353747264716   0.904217456142717   0.109778152578417   1.0000000
N2   N   0.523849713465290   0.047458737862267   0.110271648709164   1.0000000
N2   N   0.523293572454498   0.190764364575401   0.111346319485995   1.0000000
N2   N   0.522020281971852   0.334334881081466   0.115938986944401   1.0000000
N2   N   0.530696524311551   0.621950788315689   0.121771291127407   1.0000000
N2   N   0.525229192627923   0.761051574595893   0.111663780227505   1.0000000
N2   N   0.667452898648662   0.905636165998704   0.107961529594544   1.0000000
N2   N   0.666684843866174   0.048096034957338   0.110045959306587   1.0000000
N2   N   0.666181275817140   0.191133481239678   0.111764920020357   1.0000000
N2   N   0.665514560225583   0.334486841691406   0.114441748890263   1.0000000
N2   N   0.665666520835531   0.477981119945152   0.115938986944401   1.0000000
N2   N   0.670760787310103   0.622982701498663   0.104534346948544   1.0000000
N2   N   0.669674826151065   0.764919248735751   0.104125238416723   1.0000000
N2   N   0.810869532636384   0.906077944106284   0.106918360715752   1.0000000
N2   N   0.809634277668581   0.048152823523038   0.109790158621044   1.0000000
N2   N   0.809117263921184   0.190884137996814   0.111021504836461   1.0000000
N2   N   0.808867920678314   0.333820126099862   0.111764920020357   1.0000000
N2   N   0.809237037342605   0.476707829462492   0.111346319485995   1.0000000
N2   N   0.810949679048910   0.619817373519668   0.107243090119536   1.0000000
N2   N   0.811981689544850   0.763746730425418   0.104096310875329   1.0000000


