data_1
_audit_creation_method   'vasp2cif'
_cell_length_a    14.93631414619966
_cell_length_b    14.936314146199727
_cell_length_c    13.341276283792837
_cell_angle_alpha    90.0
_cell_angle_beta    90.0
_cell_angle_gamma    119.99999999999984

_symmetry_space_group_name_H-M    'P 1'
loop_
_atom_site_label
_atom_site_type_symbol
_atom_site_fract_x
_atom_site_fract_y
_atom_site_fract_z
_atom_site_occupancy
Sb2   Sb   0.444444444444443   0.388888888888886   0.375000000000000   1.0000000
N2   N   0.111092653474554   0.055527433471786   0.125420560163635   1.0000000
N2   N   0.611146986998354   0.555577486231047   0.124481621587265   1.0000000
N2   N   0.444434779997189   0.055527433471786   0.125420560163635   1.0000000
N2   N   0.944460644514510   0.555565785071487   0.125270575054049   1.0000000
N2   N   0.777777777777779   0.055555555555557   0.125381867958235   1.0000000
N2   N   0.111111111111114   0.722222222222221   0.624901832667537   1.0000000
N2   N   0.444434779997189   0.722240679858866   0.624579439836315   1.0000000
N2   N   0.277755847102402   0.222186346335045   0.625518378412748   1.0000000
N2   N   0.777805899861585   0.722240679858866   0.624579439836315   1.0000000
N2   N   0.611108148148952   0.222225185184334   0.624631429222946   1.0000000
N2   N   0.944446711914509   0.222227445875529   0.624556760787771   1.0000000
N2   N   0.277767548261756   0.722228192776429   0.125270575054049   1.0000000
N2   N   0.111117037035260   0.222225185184334   0.125368570777110   1.0000000
N2   N   0.444430499232572   0.222186346335045   0.124481621587265   1.0000000
N2   N   0.611108148148952   0.722216296298125   0.125368570777110   1.0000000
N2   N   0.944460644514510   0.722228192776429   0.125270575054049   1.0000000
N2   N   0.777780733961104   0.222227445875529   0.125443239212280   1.0000000
N2   N   0.111105140556963   0.888872688818819   0.624729424945958   1.0000000
N2   N   0.444437624388019   0.888885478860727   0.624584856437542   1.0000000
N2   N   0.277755847102402   0.388902834100757   0.625518378412748   1.0000000
N2   N   0.611146986998354   0.388902834100757   0.625518378412748   1.0000000
N2   N   0.777780733961104   0.888886621418820   0.624556760787771   1.0000000
N2   N   0.944447854472602   0.388895708945310   0.624584856437542   1.0000000
N2   N   0.111092653474554   0.388898553336139   0.125420560163635   1.0000000
N2   N   0.277767548261756   0.888872688818819   0.125270575054049   1.0000000
N2   N   0.611105887457666   0.888886621418820   0.125443239212280   1.0000000
N2   N   0.444444444444443   0.388888888888886   0.123513500973601   1.0000000
N2   N   0.944447854472602   0.888885478860727   0.125415143562408   1.0000000
N2   N   0.777805899861585   0.388898553336139   0.125420560163635   1.0000000
N2   N   0.277761058925962   0.555572274407387   0.624676690181044   1.0000000
N2   N   0.111092653474554   0.055527433471786   0.624579439836315   1.0000000
N2   N   0.611146986998354   0.555577486231047   0.625518378412748   1.0000000
N2   N   0.444434779997189   0.055527433471786   0.624579439836315   1.0000000
N2   N   0.944460644514510   0.555565785071487   0.624729424945958   1.0000000
N2   N   0.111105140556963   0.555565785071487   0.125270575054049   1.0000000
N2   N   0.777777777777779   0.055555555555557   0.624618132041758   1.0000000
N2   N   0.277761058925962   0.055522117851947   0.125323309818828   1.0000000
N2   N   0.444430499232572   0.555577486231047   0.124481621587265   1.0000000
N2   N   0.777811215481411   0.555572274407387   0.125323309818828   1.0000000
N2   N   0.611105887457779   0.055552599372196   0.125443239212280   1.0000000
N2   N   0.444430499232572   0.555577486231047   0.625518378412748   1.0000000
N2   N   0.944446711914509   0.055552599372196   0.125443239212280   1.0000000
N2   N   0.277767548261756   0.722228192776429   0.624729424945958   1.0000000
N2   N   0.111117037035260   0.222225185184334   0.624631429222946   1.0000000
N2   N   0.444430499232572   0.222186346335045   0.625518378412748   1.0000000
N2   N   0.611108148148952   0.722216296298125   0.624631429222946   1.0000000
N2   N   0.944460644514510   0.722228192776429   0.624729424945958   1.0000000
N2   N   0.777780733961104   0.222227445875529   0.624556760787771   1.0000000
N2   N   0.111111111111114   0.722222222222221   0.125098167332485   1.0000000
N2   N   0.444434779997189   0.722240679858866   0.125420560163635   1.0000000
N2   N   0.277755847102402   0.222186346335045   0.124481621587265   1.0000000
N2   N   0.777805899861585   0.722240679858866   0.125420560163635   1.0000000
N2   N   0.611108148148952   0.222225185184334   0.125368570777110   1.0000000
N2   N   0.944446711914509   0.222227445875529   0.125443239212280   1.0000000
N2   N   0.111092653474554   0.388898553336139   0.624579439836315   1.0000000
N2   N   0.277767548261756   0.888872688818819   0.624729424945958   1.0000000
N2   N   0.611105887457666   0.888886621418820   0.624556760787771   1.0000000
N2   N   0.444444444444443   0.388888888888886   0.626486499026455   1.0000000
N2   N   0.944447854472602   0.888885478860727   0.624584856437542   1.0000000
N2   N   0.111105140556963   0.888872688818819   0.125270575054049   1.0000000
N2   N   0.777805899861585   0.388898553336139   0.624579439836315   1.0000000
N2   N   0.444437624388019   0.888885478860727   0.125415143562408   1.0000000
N2   N   0.277755847102402   0.388902834100757   0.124481621587265   1.0000000
N2   N   0.277761058925962   0.555572274407387   0.125323309818828   1.0000000
N2   N   0.611146986998354   0.388902834100757   0.124481621587265   1.0000000
N2   N   0.777780733961104   0.888886621418820   0.125443239212280   1.0000000
N2   N   0.944447854472602   0.388895708945310   0.125415143562408   1.0000000
N2   N   0.111105140556963   0.555565785071487   0.624729424945958   1.0000000
N2   N   0.277761058925962   0.055522117851947   0.624676690181044   1.0000000
N2   N   0.777811215481411   0.555572274407387   0.624676690181044   1.0000000
N2   N   0.611105887457644   0.055552599372196   0.624556760787771   1.0000000
N2   N   0.944446711914509   0.055552599372196   0.624556760787771   1.0000000
N2   N   0.054115960533128   0.110194783097013   0.375000000000000   1.0000000
N2   N   0.556109857493555   0.612219714986990   0.375000000000000   1.0000000
N2   N   0.387303186768515   0.102357346974341   0.375000000000000   1.0000000
N2   N   0.891927331272165   0.612630332302551   0.375000000000000   1.0000000
N2   N   0.722491425359409   0.110841907973884   0.375000000000000   1.0000000
N2   N   0.055553517073516   0.777779816259742   0.875000000000000   1.0000000
N2   N   0.388894902804817   0.777781400433892   0.875000000000000   1.0000000
N2   N   0.222218243755597   0.277775788544448   0.875000000000000   1.0000000
N2   N   0.722223398696836   0.777782410357949   0.875000000000000   1.0000000
N2   N   0.555557544788859   0.277775788544448   0.875000000000000   1.0000000
N2   N   0.888887776460948   0.277775552921689   0.875000000000000   1.0000000
N2   N   0.221664140450088   0.777498736891666   0.375000000000000   1.0000000
N2   N   0.054115960533128   0.277254510769444   0.375000000000000   1.0000000
N2   N   0.373557862130940   0.247115724262022   0.375000000000000   1.0000000
N2   N   0.556078822563977   0.779217372800185   0.375000000000000   1.0000000
N2   N   0.891314159978886   0.779771041238645   0.375000000000000   1.0000000
N2   N   0.723138550236329   0.277254510769444   0.375000000000000   1.0000000
N2   N   0.055551932899372   0.944446835704210   0.875000000000000   1.0000000
N2   N   0.388894902804817   0.944446835704210   0.875000000000000   1.0000000
N2   N   0.222219721659787   0.444440323480600   0.875000000000000   1.0000000
N2   N   0.555557461109325   0.444445397221327   0.875000000000000   1.0000000
N2   N   0.722223025695136   0.944446051390130   0.875000000000000   1.0000000
N2   N   0.888886497629118   0.444438430528512   0.875000000000000   1.0000000
N2   N   0.053562292094670   0.444876452073577   0.375000000000000   1.0000000
N2   N   0.220703001030664   0.941406002061163   0.375000000000000   1.0000000
N2   N   0.556004724359440   0.944669028846392   0.375000000000000   1.0000000
N2   N   0.373557862130940   0.459775471202389   0.375000000000000   1.0000000
N2   N   0.888664304486937   0.944669028846392   0.375000000000000   1.0000000
N2   N   0.730975986359108   0.446030146564814   0.375000000000000   1.0000000
N2   N   0.222224334959799   0.611108998373465   0.875000000000000   1.0000000
N2   N   0.055550922975515   0.111109934636585   0.875000000000000   1.0000000
N2   N   0.555557544788859   0.611115089577782   0.875000000000000   1.0000000
N2   N   0.388893009852729   0.111112731512501   0.875000000000000   1.0000000
N2   N   0.888884663413474   0.611108998373465   0.875000000000000   1.0000000
N2   N   0.055834596441635   0.611669192883156   0.375000000000000   1.0000000
N2   N   0.722223025695136   0.111110307638263   0.875000000000000   1.0000000
N2   N   0.215054160205777   0.102357346974341   0.375000000000000   1.0000000
N2   N   0.387303186768515   0.618279173127516   0.375000000000000   1.0000000
N2   N   0.730975986359108   0.618279173127516   0.375000000000000   1.0000000
N2   N   0.556078822563977   0.110194783097013   0.375000000000000   1.0000000
N2   N   0.388893009852729   0.611113611673449   0.875000000000000   1.0000000
N2   N   0.888350482614234   0.110841907973884   0.375000000000000   1.0000000
N2   N   0.222226299186340   0.777779816259742   0.875000000000000   1.0000000
N2   N   0.055550922975515   0.277774321672258   0.875000000000000   1.0000000
N2   N   0.388887936112002   0.277775872223897   0.875000000000000   1.0000000
N2   N   0.555559011660922   0.777782410357949   0.875000000000000   1.0000000
N2   N   0.888886497629118   0.777781400433892   0.875000000000000   1.0000000
N2   N   0.722223398696836   0.277774321672258   0.875000000000000   1.0000000
N2   N   0.055834596441635   0.777498736891666   0.375000000000000   1.0000000
N2   N   0.388456881259751   0.779771041238645   0.375000000000000   1.0000000
N2   N   0.221113618346360   0.277223475839837   0.375000000000000   1.0000000
N2   N   0.723138550236329   0.779217372800185   0.375000000000000   1.0000000
N2   N   0.556109857493555   0.277223475839837   0.375000000000000   1.0000000
N2   N   0.888664304486937   0.277328608973938   0.375000000000000   1.0000000
N2   N   0.055551932899372   0.444438430528512   0.875000000000000   1.0000000
N2   N   0.222224334959799   0.944448669919854   0.875000000000000   1.0000000
N2   N   0.555557780411845   0.944445556872381   0.875000000000000   1.0000000
N2   N   0.388887936112002   0.444445397221327   0.875000000000000   1.0000000
N2   N   0.888887776460948   0.944445556872381   0.875000000000000   1.0000000
N2   N   0.053562292094670   0.942019173354443   0.375000000000000   1.0000000
N2   N   0.722220601820792   0.444440323480600   0.875000000000000   1.0000000
N2   N   0.388456881259751   0.942019173354443   0.375000000000000   1.0000000
N2   N   0.215054160205777   0.446030146564814   0.375000000000000   1.0000000
N2   N   0.220703001030664   0.612630332302551   0.375000000000000   1.0000000
N2   N   0.586217609071449   0.459775471202389   0.375000000000000   1.0000000
N2   N   0.722491425359409   0.944982850719095   0.375000000000000   1.0000000
N2   N   0.891314159978886   0.444876452073577   0.375000000000000   1.0000000
N2   N   0.055553517073516   0.611107034147024   0.875000000000000   1.0000000
N2   N   0.222219721659787   0.111112731512501   0.875000000000000   1.0000000
N2   N   0.722220601820792   0.611113611673449   0.875000000000000   1.0000000
N2   N   0.555559011660922   0.111109934636585   0.875000000000000   1.0000000
N2   N   0.888887281943198   0.111110307638263   0.875000000000000   1.0000000
B2   B   0.105913117117965   0.050942121390305   0.375000000000000   1.0000000
B2   B   0.623215057448067   0.566926850464054   0.375000000000000   1.0000000
B2   B   0.445029004272326   0.050942121390305   0.375000000000000   1.0000000
B2   B   0.945897288772703   0.555928927541965   0.375000000000000   1.0000000
B2   B   0.777777777777779   0.055555555555557   0.375000000000000   1.0000000
B2   B   0.111111111111114   0.722222222222221   0.875000000000000   1.0000000
B2   B   0.444459410097685   0.722263990500107   0.875000000000000   1.0000000
B2   B   0.277724832015669   0.222179882765839   0.875000000000000   1.0000000
B2   B   0.777804580402386   0.722263990500107   0.875000000000000   1.0000000
B2   B   0.611141545610983   0.222191787722381   0.875000000000000   1.0000000
B2   B   0.944416261559991   0.222204425697079   0.875000000000000   1.0000000
B2   B   0.277404405791435   0.723301694564016   0.375000000000000   1.0000000
B2   B   0.108793384216071   0.221063358774678   0.375000000000000   1.0000000
B2   B   0.443711793015745   0.210118275885147   0.375000000000000   1.0000000
B2   B   0.612269974558657   0.724539949117201   0.375000000000000   1.0000000
B2   B   0.945897288772703   0.723301694564016   0.375000000000000   1.0000000
B2   B   0.778052044855261   0.221394522949824   0.375000000000000   1.0000000
B2   B   0.111098694538788   0.888878902479818   0.875000000000000   1.0000000
B2   B   0.444458740107027   0.888896036720128   0.875000000000000   1.0000000
B2   B   0.277724832015669   0.388878282583180   0.875000000000000   1.0000000
B2   B   0.611153450567568   0.388878282583180   0.875000000000000   1.0000000
B2   B   0.777788164137096   0.888917071773338   0.875000000000000   1.0000000
B2   B   0.944437296613200   0.388874593226302   0.875000000000000   1.0000000
B2   B   0.105913117117965   0.388304329061002   0.375000000000000   1.0000000
B2   B   0.277404405791435   0.887436044560626   0.375000000000000   1.0000000
B2   B   0.611938810383462   0.889990855238752   0.375000000000000   1.0000000
B2   B   0.944121013374190   0.889212319959139   0.375000000000000   1.0000000
B2   B   0.782391211943001   0.388304329061002   0.375000000000000   1.0000000
B2   B   0.277760717082562   0.555572616250737   0.875000000000000   1.0000000
B2   B   0.111069342833158   0.055528752930921   0.875000000000000   1.0000000
B2   B   0.611153450567568   0.555608501317574   0.875000000000000   1.0000000
B2   B   0.444459410097685   0.055528752930921   0.875000000000000   1.0000000
B2   B   0.944454430853511   0.555553125392569   0.875000000000000   1.0000000
B2   B   0.110031638769341   0.555928927541965   0.375000000000000   1.0000000
B2   B   0.777777777777779   0.055555555555557   0.875000000000000   1.0000000
B2   B   0.275231406523462   0.050462813047030   0.375000000000000   1.0000000
B2   B   0.443711793015745   0.566926850464054   0.375000000000000   1.0000000
B2   B   0.782870520286412   0.558101926809761   0.375000000000000   1.0000000
B2   B   0.611938810383462   0.055281288478018   0.375000000000000   1.0000000
B2   B   0.444455050750148   0.555608501317574   0.875000000000000   1.0000000
B2   B   0.943342478094576   0.055281288478018   0.375000000000000   1.0000000
B2   B   0.277780207940959   0.722234638794562   0.875000000000000   1.0000000
B2   B   0.111050242111447   0.222191787722381   0.875000000000000   1.0000000
B2   B   0.444455050750148   0.222179882765839   0.875000000000000   1.0000000
B2   B   0.611141545610983   0.722283091221859   0.875000000000000   1.0000000
B2   B   0.944454430853511   0.722234638794562   0.875000000000000   1.0000000
B2   B   0.777788164137096   0.222204425697079   0.875000000000000   1.0000000
B2   B   0.111111111111114   0.722222222222221   0.375000000000000   1.0000000
B2   B   0.445029004272326   0.727420216215414   0.375000000000000   1.0000000
B2   B   0.266406482869353   0.210118275885147   0.375000000000000   1.0000000
B2   B   0.782391211943001   0.727420216215414   0.375000000000000   1.0000000
B2   B   0.612269974558657   0.221063358774678   0.375000000000000   1.0000000
B2   B   0.943342478094576   0.221394522949824   0.375000000000000   1.0000000
B2   B   0.111069342833158   0.388873923235644   0.875000000000000   1.0000000
B2   B   0.277780207940959   0.888878902479818   0.875000000000000   1.0000000
B2   B   0.611128907636164   0.888917071773338   0.875000000000000   1.0000000
B2   B   0.444444444444443   0.388888888888886   0.875000000000000   1.0000000
B2   B   0.944437296613200   0.888896036720128   0.875000000000000   1.0000000
B2   B   0.110031638769341   0.887436044560626   0.375000000000000   1.0000000
B2   B   0.777804580402386   0.388873923235644   0.875000000000000   1.0000000
B2   B   0.445091306584807   0.889212319959139   0.375000000000000   1.0000000
B2   B   0.266406482869353   0.389621540317584   0.375000000000000   1.0000000
B2   B   0.275231406523462   0.558101926809761   0.375000000000000   1.0000000
B2   B   0.623215057448067   0.389621540317584   0.375000000000000   1.0000000
B2   B   0.778052044855261   0.889990855238752   0.375000000000000   1.0000000
B2   B   0.944121013374190   0.388242026748522   0.375000000000000   1.0000000
B2   B   0.111098694538788   0.555553125392569   0.875000000000000   1.0000000
B2   B   0.277760717082562   0.055521434165267   0.875000000000000   1.0000000
B2   B   0.777811899168212   0.555572616250737   0.875000000000000   1.0000000
B2   B   0.611128907636164   0.055545169196318   0.875000000000000   1.0000000
B2   B   0.944416261559991   0.055545169196318   0.875000000000000   1.0000000
B2   B   0.055459591273496   0.111026012992966   0.125191733494545   1.0000000
B2   B   0.555646721822298   0.611293443644781   0.124273731521927   1.0000000
B2   B   0.388803800428284   0.110864373851808   0.124774748765812   1.0000000
B2   B   0.889028638380888   0.611180985857161   0.125076010321562   1.0000000
B2   B   0.722235849034331   0.111097484299232   0.125253241642897   1.0000000
B2   B   0.055571997407373   0.777761335925821   0.625002003006027   1.0000000
B2   B   0.388849552476573   0.777826741842897   0.624823405544445   1.0000000
B2   B   0.222039889688519   0.277686611510945   0.625726268477902   1.0000000
B2   B   0.722307320340220   0.777873742059712   0.624808266505512   1.0000000
B2   B   0.555646721822298   0.277686611510945   0.625726268477902   1.0000000
B2   B   0.888890568912938   0.277781137825820   0.624733611859825   1.0000000
B2   B   0.222189338518597   0.777761335925821   0.124997996994008   1.0000000
B2   B   0.055459591273496   0.277766911613809   0.125191733494545   1.0000000
B2   B   0.388677154168566   0.277354308337111   0.123038080077777   1.0000000
B2   B   0.555566421719328   0.777873742059712   0.125191733494545   1.0000000
B2   B   0.888977189366303   0.777826741842897   0.125176594455540   1.0000000
B2   B   0.722307320340220   0.277766911613809   0.125191733494545   1.0000000
B2   B   0.055506591490311   0.944356143967026   0.624823405544445   1.0000000
B2   B   0.388849552476573   0.944356143967026   0.624823405544445   1.0000000
B2   B   0.222060573423496   0.444529532905044   0.625225251234145   1.0000000
B2   B   0.555979024996204   0.444656179164763   0.626961919922245   1.0000000
B2   B   0.722235849034331   0.944471698068236   0.624746758357147   1.0000000
B2   B   0.888977189366303   0.444483780856756   0.624823405544445   1.0000000
B2   B   0.055506591490311   0.444483780856756   0.125176594455540   1.0000000
B2   B   0.222152347476231   0.944304694952440   0.125076010321562   1.0000000
B2   B   0.555552195507409   0.944442764420390   0.125266388140211   1.0000000
B2   B   0.388677154168566   0.444656179164763   0.123038080077777   1.0000000
B2   B   0.888890568912938   0.944442764420390   0.125266388140204   1.0000000
B2   B   0.722468959481548   0.444529532905044   0.124774748765812   1.0000000
B2   B   0.222152347476231   0.611180985857161   0.624923989678445   1.0000000
B2   B   0.055459591273496   0.111026012992966   0.624808266505512   1.0000000
B2   B   0.555646721822298   0.611293443644781   0.625726268477902   1.0000000
B2   B   0.388803800428284   0.110864373851808   0.625225251234145   1.0000000
B2   B   0.889028638380888   0.611180985857161   0.624923989678445   1.0000000
B2   B   0.055571997407373   0.611143994814760   0.124997996994008   1.0000000
B2   B   0.722235849034331   0.111097484299232   0.624746758357147   1.0000000
B2   B   0.222060573423496   0.110864373851808   0.124774748765812   1.0000000
B2   B   0.388803800428284   0.611272759909798   0.124774748765812   1.0000000
B2   B   0.722468959481548   0.611272759909777   0.124774748765812   1.0000000
B2   B   0.555566421719328   0.111026012992966   0.125191733494545   1.0000000
B2   B   0.388803800428284   0.611272759909798   0.625225251234145   1.0000000
B2   B   0.888861635265093   0.111097484299232   0.125253241642897   1.0000000
B2   B   0.222189338518597   0.777761335925821   0.625002003006027   1.0000000
B2   B   0.055459591273496   0.277766911613809   0.624808266505512   1.0000000
B2   B   0.388677154168566   0.277354308337111   0.626961919922245   1.0000000
B2   B   0.555566421719328   0.777873742059712   0.624808266505512   1.0000000
B2   B   0.888977189366303   0.777826741842897   0.624823405544445   1.0000000
B2   B   0.722307320340220   0.277766911613809   0.624808266505512   1.0000000
B2   B   0.055571997407373   0.777761335925821   0.124997996994008   1.0000000
B2   B   0.388849552476573   0.777826741842897   0.125176594455540   1.0000000
B2   B   0.222039889688519   0.277686611510945   0.124273731521920   1.0000000
B2   B   0.722307320340220   0.777873742059712   0.125191733494545   1.0000000
B2   B   0.555646721822298   0.277686611510945   0.124273731521927   1.0000000
B2   B   0.888890568912938   0.277781137825820   0.125266388140225   1.0000000
B2   B   0.055506591490311   0.444483780856756   0.624823405544445   1.0000000
B2   B   0.222152347476231   0.944304694952440   0.624923989678445   1.0000000
B2   B   0.555552195507409   0.944442764420390   0.624733611859825   1.0000000
B2   B   0.388677154168566   0.444656179164763   0.626961919922245   1.0000000
B2   B   0.888890568912938   0.944442764420390   0.624733611859825   1.0000000
B2   B   0.055506591490311   0.944356143967026   0.125176594455540   1.0000000
B2   B   0.722468959481548   0.444529532905044   0.625225251234145   1.0000000
B2   B   0.388849552476573   0.944356143967026   0.125176594455540   1.0000000
B2   B   0.222060573423496   0.444529532905044   0.124774748765812   1.0000000
B2   B   0.222152347476231   0.611180985857161   0.125076010321562   1.0000000
B2   B   0.555979024996204   0.444656179164763   0.123038080077777   1.0000000
B2   B   0.722235849034331   0.944471698068236   0.125253241642897   1.0000000
B2   B   0.888977189366303   0.444483780856756   0.125176594455540   1.0000000
B2   B   0.055571997407373   0.611143994814760   0.625002003006027   1.0000000
B2   B   0.222060573423496   0.110864373851808   0.625225251234145   1.0000000
B2   B   0.722468959481548   0.611272759909777   0.625225251234145   1.0000000
B2   B   0.555566421719328   0.111026012992966   0.624808266505512   1.0000000
B2   B   0.888861635265093   0.111097484299232   0.624746758357147   1.0000000


