data_1
_audit_creation_method   'vasp2cif'
_cell_length_a    17.52789999999977
_cell_length_b    17.52789999999977
_cell_length_c    15.0
_cell_angle_alpha    90.0
_cell_angle_beta    90.0
_cell_angle_gamma    119.99999999999916

_symmetry_space_group_name_H-M    'P 1'
loop_
_atom_site_label
_atom_site_type_symbol
_atom_site_fract_x
_atom_site_fract_y
_atom_site_fract_z
_atom_site_occupancy
B2   B   0.904612569702390   0.952306356263386   0.111012861575142   1.0000000
B2   B   0.904810042800344   0.095271966713864   0.111036739571398   1.0000000
B2   B   0.904800722461576   0.238132933409342   0.111040345281478   1.0000000
B2   B   0.904596433152088   0.380904837245229   0.111004329523361   1.0000000
B2   B   0.904852236777228   0.523735191946292   0.111000248311809   1.0000000
B2   B   0.904921584836644   0.666740922909137   0.111044179153414   1.0000000
B2   B   0.904860658627778   0.809708376889071   0.111043840980222   1.0000000
B2   B   0.047753144150801   0.952593430571016   0.111009396997534   1.0000000
B2   B   0.047856517804392   0.095481241543178   0.111015438107578   1.0000000
B2   B   0.047925461728552   0.238247486767307   0.111005707863348   1.0000000
B2   B   0.047866632865065   0.380950689739767   0.111024660442213   1.0000000
B2   B   0.047752239581327   0.523733877598188   0.111008764980928   1.0000000
B2   B   0.047690701819271   0.666652251503187   0.111017527396798   1.0000000
B2   B   0.047695148077703   0.809606258333081   0.111001507119609   1.0000000
B2   B   0.190494496699646   0.952419241002038   0.111002145521842   1.0000000
B2   B   0.190775219889202   0.095574068476969   0.111029490737002   1.0000000
B2   B   0.191201840301427   0.238638757872331   0.111008852910680   1.0000000
B2   B   0.191217452917789   0.381130977501228   0.110994775762738   1.0000000
B2   B   0.190776944456566   0.523753838293132   0.111043169168771   1.0000000
B2   B   0.190499727096984   0.666623975354481   0.111050439977810   1.0000000
B2   B   0.190539325784800   0.809546639750448   0.111003931874678   1.0000000
B2   B   0.333425233772082   0.952428900351219   0.111018207698806   1.0000000
B2   B   0.333309006172202   0.095169481257695   0.111044369222091   1.0000000
B2   B   0.333887254265187   0.238270199365735   0.111056318131177   1.0000000
B2   B   0.335272989307430   0.381917123376751   0.111032550418512   1.0000000
B2   B   0.333898342972990   0.524167558924319   0.111055783677622   1.0000000
B2   B   0.333321337058559   0.666680264716257   0.111067850389740   1.0000000
B2   B   0.333440503690588   0.809554331281492   0.111051604532450   1.0000000
B2   B   0.476263375437423   0.952416175647998   0.111008586699311   1.0000000
B2   B   0.476210261384906   0.095792311969269   0.110999136633069   1.0000000
B2   B   0.475704348904886   0.239012516182574   0.111040007631278   1.0000000
B2   B   0.475717868483547   0.665250837922054   0.111038339661333   1.0000000
B2   B   0.476240709030050   0.808992341058574   0.111037896326596   1.0000000
B2   B   0.619002365783791   0.952213645278715   0.111020793691647   1.0000000
B2   B   0.618979608685432   0.095366354692561   0.111001301380460   1.0000000
B2   B   0.618792165881641   0.238427826436091   0.111010658560765   1.0000000
B2   B   0.617977971976707   0.381619633347605   0.111010222535884   1.0000000
B2   B   0.620108318138827   0.524350931191250   0.111070498973501   1.0000000
B2   B   0.617978442997788   0.664937136566671   0.111013366079144   1.0000000
B2   B   0.618834147182604   0.808969914233720   0.111003813228142   1.0000000
B2   B   0.761744433347565   0.952185612647184   0.111007652221712   1.0000000
B2   B   0.761843871531811   0.095225866991959   0.111039894458617   1.0000000
B2   B   0.761712351597953   0.238150308224742   0.111047241660595   1.0000000
B2   B   0.761220057074149   0.380920437856107   0.111012296978206   1.0000000
B2   B   0.762239548416767   0.523894302955821   0.111034588559406   1.0000000
B2   B   0.762243724436423   0.666927974030519   0.111030038544875   1.0000000
B2   B   0.761238640816460   0.808919130565024   0.111017929849160   1.0000000
C2   C   0.475651591726459   0.381887457443583   0.111166445054827   1.0000000
C2   C   0.475637544006469   0.522313020229229   0.111181047290846   1.0000000
C2   C   0.519601571333143   0.474105737461703   0.111244452192545   1.0000000
N2   N   0.952471696482835   0.904925874189455   0.111001071558732   1.0000000
N2   N   0.952474405051863   0.047686643416525   0.110996832928141   1.0000000
N2   N   0.952583660026628   0.190591855575109   0.111005785090321   1.0000000
N2   N   0.952472290330341   0.333387044963882   0.111001340452522   1.0000000
N2   N   0.952467959979335   0.476134280493535   0.110960512303071   1.0000000
N2   N   0.952440772692344   0.619016395331959   0.111003960569772   1.0000000
N2   N   0.952439173756837   0.761995690591270   0.111012831579320   1.0000000
N2   N   0.095276202522998   0.904857827846230   0.110973047707084   1.0000000
N2   N   0.095511488148821   0.047926093797726   0.110995724467776   1.0000000
N2   N   0.095825846900365   0.190908812255142   0.110986416772701   1.0000000
N2   N   0.095835218700264   0.333490740730403   0.110984091231320   1.0000000
N2   N   0.095516165007040   0.476155896675961   0.111002248320018   1.0000000
N2   N   0.095280661884303   0.618984734514472   0.111004810100560   1.0000000
N2   N   0.095284218537882   0.761922366868521   0.110980956082425   1.0000000
N2   N   0.238155050643563   0.904811449759889   0.110979487832123   1.0000000
N2   N   0.238111250694449   0.047686466404055   0.111009298184840   1.0000000
N2   N   0.238664058660320   0.191054542094658   0.111005076565218   1.0000000
N2   N   0.239836102582328   0.334197514369423   0.110969883266930   1.0000000
N2   N   0.238678344148381   0.476171258905163   0.111009681362614   1.0000000
N2   N   0.238121528720749   0.618974207604021   0.111033234675736   1.0000000
N2   N   0.238164094920795   0.761894773652740   0.111008735500565   1.0000000
N2   N   0.381041648557612   0.904797554457934   0.111005443630499   1.0000000
N2   N   0.381004893420221   0.047709359591444   0.111003721184058   1.0000000
N2   N   0.380775894272424   0.190281788184327   0.111025382386888   1.0000000
N2   N   0.382640539026401   0.333506237302601   0.111063396744986   1.0000000
N2   N   0.382648226771300   0.477685615694538   0.111058583913340   1.0000000
N2   N   0.380789734801729   0.619040796685063   0.111029256896431   1.0000000
N2   N   0.381027038433977   0.761849027126224   0.111029580425093   1.0000000
N2   N   0.523765168023386   0.904444333009544   0.110998207909161   1.0000000
N2   N   0.523748329429844   0.047882617529364   0.110966023927852   1.0000000
N2   N   0.523631821548254   0.191444940317836   0.110985755334262   1.0000000
N2   N   0.521860372765181   0.334813601925609   0.111036447367224   1.0000000
N2   N   0.521859620024606   0.615601227145568   0.111048842175285   1.0000000
N2   N   0.523663483551696   0.760762843401579   0.111001511590580   1.0000000
N2   N   0.666469061862716   0.904383910758812   0.110991389719143   1.0000000
N2   N   0.666552076157670   0.047575528499768   0.110999616742629   1.0000000
N2   N   0.666438295665594   0.190661931373251   0.111007142479812   1.0000000
N2   N   0.665611551689892   0.333533633619355   0.110982341647019   1.0000000
N2   N   0.667098388218075   0.476508336576004   0.110998382564424   1.0000000
N2   N   0.667106172137170   0.619178537601388   0.110995408107842   1.0000000
N2   N   0.665630227454259   0.760669009868838   0.110983401462260   1.0000000
N2   N   0.809166371589839   0.904376821453237   0.110987537236564   1.0000000
N2   N   0.809482127580045   0.047551120651394   0.111007565895931   1.0000000
N2   N   0.809470608686928   0.190537888212849   0.111023494774299   1.0000000
N2   N   0.809147006481537   0.333387661184787   0.111003887082214   1.0000000
N2   N   0.809575604067209   0.476162623806009   0.111002945136201   1.0000000
N2   N   0.809691051734156   0.619134046852780   0.111023662893973   1.0000000
N2   N   0.809581675008362   0.762007751535701   0.111014798671615   1.0000000


