data_1
_audit_creation_method   'vasp2cif'
_cell_length_a    17.52789999999977
_cell_length_b    17.52789999999977
_cell_length_c    15.0
_cell_angle_alpha    90.0
_cell_angle_beta    90.0
_cell_angle_gamma    119.99999999999916

_symmetry_space_group_name_H-M    'P 1'
loop_
_atom_site_label
_atom_site_type_symbol
_atom_site_fract_x
_atom_site_fract_y
_atom_site_fract_z
_atom_site_occupancy
Ga2   Ga   0.411170273122596   0.478992378870084   0.110404247078363   1.0000000
B2   B   0.908988842944172   0.955426069729910   0.110547411654336   1.0000000
B2   B   0.907886140926557   0.098120226226441   0.110528195014865   1.0000000
B2   B   0.907038181251145   0.240580976694639   0.110585629702283   1.0000000
B2   B   0.905425679930591   0.382470072790404   0.110595937505624   1.0000000
B2   B   0.902971527559379   0.524149639823385   0.110635004472629   1.0000000
B2   B   0.905965811044354   0.666788944390412   0.110762809817423   1.0000000
B2   B   0.909106225936053   0.811963945515448   0.110755836130889   1.0000000
B2   B   0.048877199526456   0.950410241012785   0.110505876829575   1.0000000
B2   B   0.048447460333157   0.093696805903323   0.110634711419335   1.0000000
B2   B   0.049985006808646   0.238891739509637   0.110451270981246   1.0000000
B2   B   0.050039960570149   0.382045356271744   0.110423025210506   1.0000000
B2   B   0.048101067463586   0.523845014624239   0.110646809322413   1.0000000
B2   B   0.048485566819520   0.665546575266226   0.110688756854957   1.0000000
B2   B   0.048900467678259   0.807745985733208   0.110502265673380   1.0000000
B2   B   0.190637789157019   0.947855813018245   0.110651678574079   1.0000000
B2   B   0.188225829026045   0.087804158504297   0.110913790324664   1.0000000
B2   B   0.188078096606699   0.231077665184533   0.110707202359006   1.0000000
B2   B   0.194550307697161   0.380888536311855   0.110245026497346   1.0000000
B2   B   0.192586910303548   0.524397046460509   0.110486084751921   1.0000000
B2   B   0.192362892033496   0.666060203925869   0.110824969439714   1.0000000
B2   B   0.191704119895335   0.807122074147661   0.110661685744517   1.0000000
B2   B   0.334481660622034   0.948771920738009   0.110700169930473   1.0000000
B2   B   0.332482883295098   0.086787438839786   0.111065870911114   1.0000000
B2   B   0.327132708057302   0.220096493634911   0.111825953836292   1.0000000
B2   B   0.327637513996715   0.357497680617382   0.111021282897937   1.0000000
B2   B   0.337256492942727   0.533430758018152   0.110415880698192   1.0000000
B2   B   0.337252522525739   0.670641178643989   0.110671051555951   1.0000000
B2   B   0.335868270421963   0.809487679492121   0.110895017752862   1.0000000
B2   B   0.478922600147332   0.952048862420566   0.110753826590509   1.0000000
B2   B   0.477424495026397   0.092584151688019   0.110729244874837   1.0000000
B2   B   0.474802297433561   0.231648690859541   0.111251119795477   1.0000000
B2   B   0.465729955515441   0.363636392298304   0.112548101383448   1.0000000
B2   B   0.484222224557002   0.668335135942000   0.110316790963761   1.0000000
B2   B   0.480784633794854   0.810808299017985   0.110937955378382   1.0000000
B2   B   0.622865307526729   0.956206792024204   0.110748998994199   1.0000000
B2   B   0.621407300812603   0.097493621267463   0.110529611473761   1.0000000
B2   B   0.619666385323318   0.239753441884119   0.110662126663252   1.0000000
B2   B   0.615973464293297   0.383443584485581   0.110817975596439   1.0000000
B2   B   0.615056975155549   0.539689841146126   0.110523747948237   1.0000000
B2   B   0.634123868609386   0.682220039203868   0.111138359677572   1.0000000
B2   B   0.625358325398906   0.816283008684273   0.111138400462494   1.0000000
B2   B   0.766558214107302   0.957414615055314   0.110723035958677   1.0000000
B2   B   0.764917155000924   0.098883379165470   0.110538109099882   1.0000000
B2   B   0.763370024976522   0.240808233759178   0.110553752661467   1.0000000
B2   B   0.760799315709227   0.382998943678169   0.110577449652364   1.0000000
B2   B   0.756577501151877   0.525643456687758   0.110640283305836   1.0000000
B2   B   0.769356215615769   0.673537581043152   0.111285937446511   1.0000000
B2   B   0.770137848611369   0.817455475203573   0.111268413602928   1.0000000
N2   N   0.955184251581540   0.906144621228791   0.110445058532230   1.0000000
N2   N   0.954702693312019   0.049504152292541   0.110490241184344   1.0000000
N2   N   0.955052612645543   0.193067609761521   0.110504334980387   1.0000000
N2   N   0.954420120404617   0.335486793800356   0.110526080629477   1.0000000
N2   N   0.952188191934488   0.477231038356530   0.110605649825801   1.0000000
N2   N   0.953020398692033   0.618928453714992   0.110661679640545   1.0000000
N2   N   0.954268498588504   0.761886379618258   0.110609681850902   1.0000000
N2   N   0.096023607300157   0.902238594869937   0.110426139420388   1.0000000
N2   N   0.094606248559239   0.044288561723013   0.110665843481980   1.0000000
N2   N   0.094651789681369   0.187970583044002   0.110565104567326   1.0000000
N2   N   0.098779066340750   0.334572791216241   0.110251777617934   1.0000000
N2   N   0.096999652712485   0.477040062586370   0.110456660629940   1.0000000
N2   N   0.096742646401242   0.618650364588098   0.110757525020777   1.0000000
N2   N   0.096524063044983   0.760261177094332   0.110541953601610   1.0000000
N2   N   0.239269635309655   0.901572830921088   0.110570111623500   1.0000000
N2   N   0.237503179368620   0.041808796155612   0.110929816761826   1.0000000
N2   N   0.233915838676581   0.181001682873173   0.111038516302745   1.0000000
N2   N   0.236013957747828   0.325533403407474   0.110321273853706   1.0000000
N2   N   0.241850491671685   0.477949393557867   0.110301374699917   1.0000000
N2   N   0.241309763196775   0.619850048068480   0.110697084424019   1.0000000
N2   N   0.240336198159001   0.760856382726115   0.110826454683242   1.0000000
N2   N   0.383581222249775   0.903675379913118   0.110741923948482   1.0000000
N2   N   0.382161817215192   0.042769449292374   0.110732009682195   1.0000000
N2   N   0.379672025902220   0.179887429939932   0.111494097190927   1.0000000
N2   N   0.373222905929701   0.311259160841170   0.112602068633592   1.0000000
N2   N   0.387138302776482   0.626152334739587   0.110232284286680   1.0000000
N2   N   0.385135810760579   0.764412413843177   0.110952440350933   1.0000000
N2   N   0.527676741002627   0.906012500249223   0.110848060696452   1.0000000
N2   N   0.526260016448732   0.047128304489467   0.110563467041899   1.0000000
N2   N   0.524548303379498   0.187669655101311   0.110785933223978   1.0000000
N2   N   0.520822231368160   0.327102992507576   0.111397316098049   1.0000000
N2   N   0.529716981803477   0.539846205880134   0.109494991432183   1.0000000
N2   N   0.542387745350761   0.629484510496978   0.109919653940228   1.0000000
N2   N   0.530169844700994   0.764473226254831   0.110838354718345   1.0000000
N2   N   0.671625132633586   0.910560733176010   0.110849298121516   1.0000000
N2   N   0.669824709370882   0.051105248723145   0.110505865358769   1.0000000
N2   N   0.668172110451454   0.192927312135915   0.110496355215659   1.0000000
N2   N   0.665291654808038   0.335965468415123   0.110608591012994   1.0000000
N2   N   0.657885989427998   0.480326704315350   0.110500650567351   1.0000000
N2   N   0.677233604300671   0.631798399604349   0.111425617290110   1.0000000
N2   N   0.676900890535104   0.774100766382761   0.111581490168045   1.0000000
N2   N   0.815311406028139   0.911012573870355   0.110732523996062   1.0000000
N2   N   0.813136167267878   0.051960159026342   0.110501754659644   1.0000000
N2   N   0.811834522097966   0.193798060805373   0.110543782899810   1.0000000
N2   N   0.809821778032390   0.335862151786592   0.110551814735599   1.0000000
N2   N   0.806362065206815   0.478004932534563   0.110554863148611   1.0000000
N2   N   0.810958475131831   0.620936224390875   0.110856715097174   1.0000000
N2   N   0.815734105137475   0.767839813375984   0.111207148888331   1.0000000


