data_1
_audit_creation_method   'vasp2cif'
_cell_length_a    17.52789999999977
_cell_length_b    17.52789999999977
_cell_length_c    15.0
_cell_angle_alpha    90.0
_cell_angle_beta    90.0
_cell_angle_gamma    119.99999999999916

_symmetry_space_group_name_H-M    'P 1'
loop_
_atom_site_label
_atom_site_type_symbol
_atom_site_fract_x
_atom_site_fract_y
_atom_site_fract_z
_atom_site_occupancy
B2   B   0.905236916156454   0.952946847355101   0.117639606735539   1.0000000
B2   B   0.904596998386912   0.095551205544917   0.117496765385502   1.0000000
B2   B   0.904381414554868   0.238382388825519   0.116872963795181   1.0000000
B2   B   0.904289992494974   0.381151406094854   0.116464997074532   1.0000000
B2   B   0.904159136999867   0.523796618436629   0.115910012581726   1.0000000
B2   B   0.904809014007550   0.666594281724112   0.115444037160301   1.0000000
B2   B   0.905465542426446   0.810037625639535   0.116890839298904   1.0000000
B2   B   0.047861990209241   0.952282656558530   0.117518103342601   1.0000000
B2   B   0.047201816420208   0.094914229015291   0.117638289859233   1.0000000
B2   B   0.047067497584876   0.237951607405992   0.116528874638591   1.0000000
B2   B   0.047324993355094   0.380868692417821   0.114918067965260   1.0000000
B2   B   0.047819383894471   0.523552936192441   0.115094543462796   1.0000000
B2   B   0.048062045536730   0.666316350604268   0.116051298901548   1.0000000
B2   B   0.048041740704270   0.809313457583027   0.116905196840503   1.0000000
B2   B   0.190837071255983   0.952108884789810   0.116936422741850   1.0000000
B2   B   0.190114580509250   0.094685950726516   0.116961088400317   1.0000000
B2   B   0.189010631868748   0.236811081702928   0.115433620811317   1.0000000
B2   B   0.189835918241936   0.380263665434976   0.110090957655170   1.0000000
B2   B   0.191361921756860   0.523005305908497   0.108383766930012   1.0000000
B2   B   0.191520509115785   0.665924766183533   0.111872639564524   1.0000000
B2   B   0.191134953954376   0.809015971446317   0.115503264268069   1.0000000
B2   B   0.333829738469274   0.952082615921584   0.116063656476170   1.0000000
B2   B   0.333544742517895   0.095330801338650   0.115541428026765   1.0000000
B2   B   0.332133079618433   0.237241712541317   0.111657521895032   1.0000000
B2   B   0.329848724859624   0.378061819905741   0.100519643548150   1.0000000
B2   B   0.335058575067250   0.521228472801161   0.093049378800259   1.0000000
B2   B   0.335075860980612   0.665082224981184   0.101950834368033   1.0000000
B2   B   0.334224982515027   0.808629481939874   0.111866708918884   1.0000000
B2   B   0.476590407768014   0.952332180602502   0.115068519371142   1.0000000
B2   B   0.476344082066870   0.095983826018110   0.115957195164943   1.0000000
B2   B   0.476096964533926   0.239810575883975   0.110126228339766   1.0000000
B2   B   0.472653848359105   0.380221458215059   0.090991436215334   1.0000000
B2   B   0.478929947837120   0.665108336666111   0.093030250260444   1.0000000
B2   B   0.477152479132804   0.808801246251146   0.108379261253233   1.0000000
B2   B   0.619282004759863   0.952830545498393   0.114897768942661   1.0000000
B2   B   0.618987939991863   0.095856257335868   0.116454939972725   1.0000000
B2   B   0.618788979902458   0.239108281397976   0.113891715207538   1.0000000
B2   B   0.618092892881228   0.382047118075766   0.105300380304318   1.0000000
B2   B   0.619908226531399   0.527487278545672   0.091001009858950   1.0000000
B2   B   0.622095273436181   0.670311392748191   0.100503822803581   1.0000000
B2   B   0.619898375260119   0.810327454734612   0.110097131271845   1.0000000
B2   B   0.762198421612957   0.953083723547649   0.116533169809417   1.0000000
B2   B   0.761762241455703   0.095766431032724   0.116873202442078   1.0000000
B2   B   0.761508593514003   0.238635630284701   0.116255894120908   1.0000000
B2   B   0.761035256454885   0.381354279927465   0.113857509113512   1.0000000
B2   B   0.760331053289257   0.524051131339035   0.110031202023602   1.0000000
B2   B   0.762902300509434   0.668014433730238   0.111585928219009   1.0000000
B2   B   0.763339666018261   0.811141929364340   0.115421127846827   1.0000000
N2   N   0.952954991125984   0.905249319144802   0.117579978679448   1.0000000
N2   N   0.952251613842320   0.047897263713105   0.117710934952401   1.0000000
N2   N   0.951836017811019   0.190618194545598   0.117251544115764   1.0000000
N2   N   0.951915284118262   0.333512904089984   0.116570637263382   1.0000000
N2   N   0.952229836267914   0.476328568860320   0.116491785294292   1.0000000
N2   N   0.952728392380649   0.619056538178159   0.116306824131278   1.0000000
N2   N   0.953000925807631   0.762078530128988   0.116738154923571   1.0000000
N2   N   0.095592626642908   0.904565105917036   0.117209794169093   1.0000000
N2   N   0.094901093766320   0.047200137403889   0.117599284431300   1.0000000
N2   N   0.093905602800685   0.189591166092915   0.117249558738326   1.0000000
N2   N   0.094320727588171   0.332942842192034   0.114538321445997   1.0000000
N2   N   0.095476924074858   0.476011703109043   0.113472174249047   1.0000000
N2   N   0.095892244937395   0.618799466030844   0.114824756379824   1.0000000
N2   N   0.095813213030180   0.761646848613839   0.116352601813793   1.0000000
N2   N   0.238500482411384   0.904339493869281   0.116366794847002   1.0000000
N2   N   0.238063212285641   0.047150686762694   0.116816331568940   1.0000000
N2   N   0.236698488299292   0.189152475388059   0.115869811761014   1.0000000
N2   N   0.235117477009855   0.330878880351170   0.111443797221153   1.0000000
N2   N   0.238367922319703   0.475236421790595   0.104567552909623   1.0000000
N2   N   0.239139448553458   0.618415083831666   0.107148717090421   1.0000000
N2   N   0.238793271985480   0.761346273219914   0.113148839789382   1.0000000
N2   N   0.381347275402864   0.904255163942392   0.114799952198467   1.0000000
N2   N   0.381078775190873   0.047416597280888   0.116364701749152   1.0000000
N2   N   0.380593566648190   0.190120062161469   0.112629129324472   1.0000000
N2   N   0.377729215230946   0.330672510271080   0.104068772956929   1.0000000
N2   N   0.376398294181688   0.469376601742025   0.085208217566986   1.0000000
N2   N   0.382436494696014   0.617730897961467   0.092267535505949   1.0000000
N2   N   0.381741119736490   0.761016030574582   0.107150551386517   1.0000000
N2   N   0.524144831424173   0.904680276305864   0.113442249314676   1.0000000
N2   N   0.523810110523954   0.047920177283280   0.116476388579660   1.0000000
N2   N   0.523575618540749   0.191395126681748   0.114181197580428   1.0000000
N2   N   0.523179881737374   0.335133716993501   0.102411695663604   1.0000000
N2   N   0.530790123791247   0.623774096532559   0.085170541788425   1.0000000
N2   N   0.524929532862855   0.761798744923820   0.104576742825212   1.0000000
N2   N   0.667210789894121   0.905836596950332   0.114543508330414   1.0000000
N2   N   0.666632910683431   0.048234599643794   0.116541552739689   1.0000000
N2   N   0.666376823812975   0.191079793442922   0.116041668144669   1.0000000
N2   N   0.666098699538068   0.334045065985358   0.111402490348411   1.0000000
N2   N   0.664994615807704   0.476956421113057   0.102372750217189   1.0000000
N2   N   0.669461866868084   0.622419855014579   0.104044984187655   1.0000000
N2   N   0.669272496792925   0.765041853574109   0.111441362838000   1.0000000
N2   N   0.810552593826085   0.906240877750256   0.117260737473776   1.0000000
N2   N   0.809526852494287   0.048313723724170   0.117253063416938   1.0000000
N2   N   0.809194120890429   0.190952548227677   0.116814399058706   1.0000000
N2   N   0.809065832762608   0.333768890293840   0.116032936497949   1.0000000
N2   N   0.808752534273286   0.476564795815009   0.114091446471972   1.0000000
N2   N   0.810020125532809   0.619548958234167   0.112503602824829   1.0000000
N2   N   0.810995173690464   0.763451397291557   0.115808349382158   1.0000000
As2   As   0.496693269757787   0.503532067523710   0.031624572257518   1.0000000


