data_1
_audit_creation_method   'vasp2cif'
_cell_length_a    17.52789999999977
_cell_length_b    17.52789999999977
_cell_length_c    15.0
_cell_angle_alpha    90.0
_cell_angle_beta    90.0
_cell_angle_gamma    119.99999999999916

_symmetry_space_group_name_H-M    'P 1'
loop_
_atom_site_label
_atom_site_type_symbol
_atom_site_fract_x
_atom_site_fract_y
_atom_site_fract_z
_atom_site_occupancy
B2   B   0.902649258379261   0.949518136469353   0.104544147217521   1.0000000
B2   B   0.904544821638700   0.093121204887514   0.105884394841599   1.0000000
B2   B   0.905381790810766   0.236151944386954   0.106479844786012   1.0000000
B2   B   0.905482472966185   0.379111890360787   0.107054218425118   1.0000000
B2   B   0.905080726030360   0.522258549299563   0.106935946201201   1.0000000
B2   B   0.903787326667560   0.665083201277890   0.105310413000575   1.0000000
B2   B   0.902338054528532   0.807132337111953   0.102711320063028   1.0000000
B2   B   0.047119929073525   0.952330255942424   0.105025792397880   1.0000000
B2   B   0.048837321118593   0.095940094513777   0.105164848354440   1.0000000
B2   B   0.049276065716959   0.238140092597505   0.104527995169627   1.0000000
B2   B   0.048613346310556   0.380208117454827   0.104741314119297   1.0000000
B2   B   0.047335436958455   0.522978728689994   0.105286118439747   1.0000000
B2   B   0.046485517522839   0.666162002059945   0.105295435974611   1.0000000
B2   B   0.046466444280608   0.809197468769002   0.104918728887456   1.0000000
B2   B   0.190247884368806   0.953281065381916   0.106654516650699   1.0000000
B2   B   0.192257270705826   0.097666480982557   0.106078368467720   1.0000000
B2   B   0.195544633972236   0.243060373564822   0.104291656803612   1.0000000
B2   B   0.193298588218736   0.382884788133355   0.103531720064548   1.0000000
B2   B   0.190020107556077   0.524147578743396   0.106624709801727   1.0000000
B2   B   0.188399632315315   0.666904456285729   0.107285969014798   1.0000000
B2   B   0.189321680761313   0.809946397321775   0.107018693741289   1.0000000
B2   B   0.332836168206519   0.952946610946490   0.109210476640820   1.0000000
B2   B   0.334192643046961   0.096736196439926   0.109390188295470   1.0000000
B2   B   0.337544923312090   0.242923044183419   0.108671023674636   1.0000000
B2   B   0.344523649835983   0.393706242866478   0.104791962191937   1.0000000
B2   B   0.333648790349899   0.526913854051060   0.111376010650245   1.0000000
B2   B   0.329324705756710   0.668013381857634   0.117067633499351   1.0000000
B2   B   0.331757941616544   0.810131908124622   0.112499745399267   1.0000000
B2   B   0.475419728919972   0.951063369928506   0.112202280567642   1.0000000
B2   B   0.476425885735075   0.094343352961225   0.111394920306508   1.0000000
B2   B   0.477650241060792   0.237710960412128   0.116957421366320   1.0000000
B2   B   0.481354321141443   0.382031265186252   0.129698900245759   1.0000000
B2   B   0.490939964807159   0.580025519558644   0.118638880999077   1.0000000
B2   B   0.468000174245097   0.663663639535841   0.136118018388594   1.0000000
B2   B   0.473991840110173   0.807687168591848   0.121114927593142   1.0000000
B2   B   0.617737558806750   0.948727870088454   0.112556541209047   1.0000000
B2   B   0.618991050093466   0.092598400558475   0.110985277798943   1.0000000
B2   B   0.619885914321822   0.235681402616918   0.114697810887891   1.0000000
B2   B   0.621548347745507   0.378374278984652   0.124078661076305   1.0000000
B2   B   0.621823990990946   0.519803586577597   0.130206246533700   1.0000000
B2   B   0.608112303746682   0.652264625858888   0.096695692417942   1.0000000
B2   B   0.614723749594763   0.802866334282448   0.113785783550978   1.0000000
B2   B   0.759581406435343   0.947988787587309   0.107041930251437   1.0000000
B2   B   0.761570003735395   0.092159078291352   0.108566451760493   1.0000000
B2   B   0.762468759331227   0.235514914631796   0.109878195008537   1.0000000
B2   B   0.763146063097306   0.378624357672065   0.112683213900460   1.0000000
B2   B   0.763074103037303   0.521437347069507   0.112999788779645   1.0000000
B2   B   0.759188749352978   0.662064877622459   0.102883205508230   1.0000000
B2   B   0.755824840572449   0.802496761881242   0.102033342674727   1.0000000
N2   N   0.951047446721637   0.902915407025979   0.103966695484598   1.0000000
N2   N   0.952349447483664   0.045916652551791   0.105297704304612   1.0000000
N2   N   0.953288549031915   0.188920926926390   0.105600474436063   1.0000000
N2   N   0.953151668790521   0.331649531745129   0.105880212960085   1.0000000
N2   N   0.952384799509897   0.474544976932612   0.106022150610000   1.0000000
N2   N   0.951488480622031   0.617676056388229   0.105619456629749   1.0000000
N2   N   0.950896829838392   0.760481828500570   0.103907506981232   1.0000000
N2   N   0.094707307557324   0.904847331698370   0.105439541831594   1.0000000
N2   N   0.096317074593545   0.048419113887655   0.105474067831056   1.0000000
N2   N   0.098581141737464   0.192359288516733   0.104634311121619   1.0000000
N2   N   0.097269474623375   0.333537711130564   0.103784983642426   1.0000000
N2   N   0.095029909943263   0.475539025669861   0.104976335674533   1.0000000
N2   N   0.093667805211772   0.618441331827946   0.105303082300197   1.0000000
N2   N   0.094033534639115   0.761678535741818   0.105510864476378   1.0000000
N2   N   0.237498140813754   0.905414365342130   0.107519600381664   1.0000000
N2   N   0.238883534511684   0.049104919382328   0.107181795550302   1.0000000
N2   N   0.241904938187715   0.194196753421475   0.105567945316070   1.0000000
N2   N   0.245814282169387   0.340032305086013   0.103024392674239   1.0000000
N2   N   0.238649691835710   0.477542512866344   0.105959569135715   1.0000000
N2   N   0.235328788899885   0.619349981440143   0.108816892784273   1.0000000
N2   N   0.236568126438972   0.762275156714180   0.108574436331497   1.0000000
N2   N   0.380115698215951   0.905086117716039   0.111100330358216   1.0000000
N2   N   0.381147312690045   0.048299089179035   0.109791516293173   1.0000000
N2   N   0.382874573166290   0.192677062410019   0.111771247419405   1.0000000
N2   N   0.388526515386556   0.340755642755114   0.110695654509020   1.0000000
N2   N   0.392877047770652   0.491638282741006   0.104514233989533   1.0000000
N2   N   0.375117571383544   0.620486464580748   0.124422457754080   1.0000000
N2   N   0.378795966475403   0.762555493811602   0.118505941493395   1.0000000
N2   N   0.522475748010445   0.902699448952460   0.114999832725717   1.0000000
N2   N   0.523658479271645   0.046230874236524   0.110961463926748   1.0000000
N2   N   0.524643201435751   0.189524582999585   0.114281561660443   1.0000000
N2   N   0.526366208335280   0.332948694513385   0.125941801349330   1.0000000
N2   N   0.520295225498467   0.758297640923500   0.128524486818699   1.0000000
N2   N   0.663983469313670   0.899383924033859   0.110831475587035   1.0000000
N2   N   0.666117096465422   0.044377924499458   0.110446906659183   1.0000000
N2   N   0.667111768092679   0.187918715572123   0.111513733814931   1.0000000
N2   N   0.668072322358404   0.330762638877877   0.117614171296083   1.0000000
N2   N   0.668687425753276   0.472984452790131   0.123829447292683   1.0000000
N2   N   0.662723250222225   0.611144974961687   0.103455466712445   1.0000000
N2   N   0.658285008027901   0.751128457867121   0.101962272636469   1.0000000
N2   N   0.806076442953034   0.899395865312004   0.104534527594022   1.0000000
N2   N   0.808676322440799   0.044103339972750   0.107004687233631   1.0000000
N2   N   0.809839894850657   0.187784483143484   0.108132063836793   1.0000000
N2   N   0.810286970904152   0.330912027651516   0.109595046676368   1.0000000
N2   N   0.810224006420901   0.473842516640326   0.110282551767845   1.0000000
N2   N   0.808541498440599   0.616292556588412   0.107149614239799   1.0000000
N2   N   0.806086170003809   0.757446378291758   0.100562257340121   1.0000000
Sn2   Sn   0.518031071161888   0.503789909764936   0.244866698635293   1.0000000


