data_1
_audit_creation_method   'vasp2cif'
_cell_length_a    17.52789999999977
_cell_length_b    17.52789999999977
_cell_length_c    15.0
_cell_angle_alpha    90.0
_cell_angle_beta    90.0
_cell_angle_gamma    119.99999999999916

_symmetry_space_group_name_H-M    'P 1'
loop_
_atom_site_label
_atom_site_type_symbol
_atom_site_fract_x
_atom_site_fract_y
_atom_site_fract_z
_atom_site_occupancy
Al2   Al   0.448050514388086   0.509740459818044   0.111473609362526   1.0000000
B2   B   0.905317357345338   0.952799370683631   0.110980765325858   1.0000000
B2   B   0.905639753592666   0.095877570655204   0.111032016394250   1.0000000
B2   B   0.905828077366331   0.238628385528668   0.111103300690172   1.0000000
B2   B   0.905639753592666   0.381190876628459   0.111032016394250   1.0000000
B2   B   0.905317357345338   0.523948391909709   0.110980765325858   1.0000000
B2   B   0.904429860750500   0.666307337895454   0.111059712091816   1.0000000
B2   B   0.904429860750500   0.809552928103040   0.111059712091816   1.0000000
B2   B   0.047423635743215   0.952089097963882   0.110997557864304   1.0000000
B2   B   0.048031619568830   0.095189976815549   0.110986998072947   1.0000000
B2   B   0.048337581983748   0.238369357753747   0.111039573649533   1.0000000
B2   B   0.048337581983748   0.381398629477000   0.111039573649533   1.0000000
B2   B   0.048031619568830   0.524272048001276   0.110986998072947   1.0000000
B2   B   0.047423635743215   0.666766654583330   0.110997557864304   1.0000000
B2   B   0.047470926911850   0.809451521857927   0.110994126589816   1.0000000
B2   B   0.190186257866588   0.951960844413943   0.111005196429569   1.0000000
B2   B   0.190218521751571   0.094427360671074   0.111036536348944   1.0000000
B2   B   0.190458370731578   0.237292578739222   0.111020228438433   1.0000000
B2   B   0.190746012740945   0.381088208993973   0.111029024340040   1.0000000
B2   B   0.190458370731578   0.524596197240358   0.111020228438433   1.0000000
B2   B   0.190218521751571   0.667221566328492   0.111036536348944   1.0000000
B2   B   0.190186257866588   0.809657530256649   0.111005196429569   1.0000000
B2   B   0.333129154118156   0.952280635460579   0.111021489096232   1.0000000
B2   B   0.333134584125132   0.093979401959081   0.111044081148289   1.0000000
B2   B   0.332934390504409   0.235710486076245   0.111045381740829   1.0000000
B2   B   0.331539670242648   0.375766058216214   0.111088296908004   1.0000000
B2   B   0.331539670242648   0.527204017273433   0.111088296908004   1.0000000
B2   B   0.332934390504409   0.668654309675172   0.111045381740829   1.0000000
B2   B   0.333134584125132   0.810585587413043   0.111044081148289   1.0000000
B2   B   0.476404623247263   0.953304794669332   0.110992382188781   1.0000000
B2   B   0.476404623247263   0.094530233824924   0.110992382188781   1.0000000
B2   B   0.476548259969044   0.235440226238271   0.110996288848522   1.0000000
B2   B   0.477843364424046   0.376642611185364   0.111032018626167   1.0000000
B2   B   0.477843364424046   0.672631158485681   0.111032018626167   1.0000000
B2   B   0.476548259969044   0.812538438977774   0.110996288848522   1.0000000
B2   B   0.619801804053491   0.953896198369690   0.110962690551440   1.0000000
B2   B   0.619822094574797   0.095625394132897   0.110960152889234   1.0000000
B2   B   0.619801804053491   0.237336010930802   0.110962690551440   1.0000000
B2   B   0.620124572063597   0.379686551985558   0.110983230297846   1.0000000
B2   B   0.617987682036339   0.520708567407712   0.111092008707479   1.0000000
B2   B   0.617987682036339   0.668709519876622   0.111092008707479   1.0000000
B2   B   0.620124572063597   0.811868425325039   0.110983230297846   1.0000000
B2   B   0.762878568568829   0.953724875370153   0.110972833736298   1.0000000
B2   B   0.762937425806707   0.095994608565222   0.111018475783402   1.0000000
B2   B   0.762937425806707   0.238371510932483   0.111018475783402   1.0000000
B2   B   0.762878568568829   0.380584098445676   0.110972833736298   1.0000000
B2   B   0.762029183591183   0.522987990161982   0.111042802074844   1.0000000
B2   B   0.761301629145635   0.666366017196811   0.111146364636751   1.0000000
B2   B   0.762029183591183   0.810471598677202   0.111042802074844   1.0000000
N2   N   0.952148927828940   0.904530915923402   0.110989935959112   1.0000000
N2   N   0.952878766078264   0.047843819796971   0.110966360499248   1.0000000
N2   N   0.953373649188462   0.190991287214629   0.111064521942705   1.0000000
N2   N   0.953373649188462   0.333809344091831   0.111064521942705   1.0000000
N2   N   0.952878766078264   0.476461928399291   0.110966360499248   1.0000000
N2   N   0.952148927828940   0.619046705580535   0.110989935959112   1.0000000
N2   N   0.951630277682166   0.761529485678582   0.111024856931749   1.0000000
N2   N   0.094842826275804   0.904410044578240   0.110977363275991   1.0000000
N2   N   0.095162670068449   0.047250771863276   0.110986523828198   1.0000000
N2   N   0.095765822379779   0.190529837385271   0.110983437969364   1.0000000
N2   N   0.096111619551307   0.333770156612654   0.111017065850488   1.0000000
N2   N   0.095765822379779   0.476664678668508   0.110983437969364   1.0000000
N2   N   0.095162670068449   0.619340591880168   0.110986523828198   1.0000000
N2   N   0.094842826275804   0.761863186928570   0.110977363275991   1.0000000
N2   N   0.237910432143122   0.904670418687060   0.110992780481390   1.0000000
N2   N   0.237965211256969   0.047068583113556   0.111028601160369   1.0000000
N2   N   0.238068807218367   0.189762629052465   0.111023920290396   1.0000000
N2   N   0.238637250769016   0.333455343719735   0.111026033837458   1.0000000
N2   N   0.238637250769016   0.476610600723275   0.111026033837458   1.0000000
N2   N   0.238068807218367   0.619734871840898   0.111023920290396   1.0000000
N2   N   0.237965211256969   0.762325321818416   0.111028601160369   1.0000000
N2   N   0.381143264436054   0.905367023614404   0.111006888330776   1.0000000
N2   N   0.381143264436054   0.047204934496654   0.111006888330776   1.0000000
N2   N   0.381281759113510   0.189116970428169   0.111021968765834   1.0000000
N2   N   0.381613704916831   0.331160866580275   0.111016048003690   1.0000000
N2   N   0.381613704916831   0.621881532011551   0.111016048003690   1.0000000
N2   N   0.381281759113510   0.763593482360351   0.111021968765834   1.0000000
N2   N   0.524559436577098   0.906785995675036   0.110960777507939   1.0000000
N2   N   0.524572821570078   0.047999901844543   0.110964200256483   1.0000000
N2   N   0.524559436577098   0.189202134577065   0.110960777507939   1.0000000
N2   N   0.524980995369495   0.330074768444024   0.110968830992175   1.0000000
N2   N   0.524618713792764   0.469815944939546   0.111099683698721   1.0000000
N2   N   0.524618713792764   0.626231462528214   0.111099683698721   1.0000000
N2   N   0.524980995369495   0.766334920600473   0.110968830992175   1.0000000
N2   N   0.667812294511227   0.906579386507743   0.110951228566439   1.0000000
N2   N   0.667752254942548   0.048562286576827   0.110953638279384   1.0000000
N2   N   0.667752254942548   0.190616950484729   0.110953638279384   1.0000000
N2   N   0.667812294511227   0.332661601678479   0.110951228566439   1.0000000
N2   N   0.667308708309738   0.475083035448203   0.111010642287520   1.0000000
N2   N   0.664939143019722   0.618183918347860   0.111122189460374   1.0000000
N2   N   0.667308708309738   0.763654366536537   0.111010642287520   1.0000000
N2   N   0.809996080942346   0.905372409171911   0.110973501528298   1.0000000
N2   N   0.810592555324155   0.048529249992036   0.110992604013451   1.0000000
N2   N   0.810664186789446   0.191045584453722   0.111051921285499   1.0000000
N2   N   0.810592555324155   0.333490287450117   0.110992604013451   1.0000000
N2   N   0.809996080942346   0.476052365444442   0.110973501528298   1.0000000
N2   N   0.808766144974171   0.618591354178651   0.111089949939003   1.0000000
N2   N   0.808766144974171   0.761603484470523   0.111089949939003   1.0000000


