data_1
_audit_creation_method   'vasp2cif'
_cell_length_a    17.52789999999977
_cell_length_b    17.52789999999977
_cell_length_c    15.0
_cell_angle_alpha    90.0
_cell_angle_beta    90.0
_cell_angle_gamma    119.99999999999916

_symmetry_space_group_name_H-M    'P 1'
loop_
_atom_site_label
_atom_site_type_symbol
_atom_site_fract_x
_atom_site_fract_y
_atom_site_fract_z
_atom_site_occupancy
B2   B   0.905069469310789   0.952604792558100   0.111022950074876   1.0000000
B2   B   0.904667288015588   0.095304102252405   0.111055421068036   1.0000000
B2   B   0.904602916424047   0.238116104891786   0.111063139868425   1.0000000
B2   B   0.904701823362398   0.380950281267967   0.111023542009498   1.0000000
B2   B   0.905257015586204   0.523890402232027   0.111025955357841   1.0000000
B2   B   0.906095290743558   0.667143149093702   0.111066756745629   1.0000000
B2   B   0.906070629790697   0.810350466198525   0.111044109764303   1.0000000
B2   B   0.047683142708946   0.952202116184016   0.111028775911939   1.0000000
B2   B   0.047103621689529   0.094712219478617   0.111032978974987   1.0000000
B2   B   0.047377867444956   0.238123312580945   0.111034073574319   1.0000000
B2   B   0.047353739989737   0.381127038697393   0.111035512335259   1.0000000
B2   B   0.047751074224400   0.523931166666041   0.111027345804082   1.0000000
B2   B   0.047855176715360   0.666878667939161   0.111044709883027   1.0000000
B2   B   0.048064679796011   0.809695299825241   0.111034915575607   1.0000000
B2   B   0.190347888444297   0.951964743240475   0.111019664956004   1.0000000
B2   B   0.189485344486976   0.093691580260589   0.111092854780143   1.0000000
B2   B   0.189810798700187   0.236155259607664   0.110997715711112   1.0000000
B2   B   0.190617312256248   0.382129742413548   0.110903043948836   1.0000000
B2   B   0.190666218695017   0.524453812370708   0.110976362911236   1.0000000
B2   B   0.189891568491683   0.667114706217579   0.111063158728610   1.0000000
B2   B   0.190388404306917   0.809697526127369   0.111018637853187   1.0000000
B2   B   0.333191251033441   0.952192371743649   0.111036959918923   1.0000000
B2   B   0.332974118632292   0.093926608020630   0.111077414381719   1.0000000
B2   B   0.330426906488416   0.233968958042175   0.111059509732568   1.0000000
B2   B   0.334249249682154   0.525986898598130   0.111231279863564   1.0000000
B2   B   0.331848817615151   0.668098235360185   0.111090258273181   1.0000000
B2   B   0.332964101162059   0.810222597717919   0.111062529494169   1.0000000
B2   B   0.476131133492205   0.952834273835467   0.111029477054131   1.0000000
B2   B   0.476239331915873   0.094916431815531   0.111021036879446   1.0000000
B2   B   0.476133369163406   0.236938913102133   0.111061589079895   1.0000000
B2   B   0.474126195175218   0.377370270109627   0.110891233214875   1.0000000
B2   B   0.473371162158949   0.668972756032570   0.110798163593503   1.0000000
B2   B   0.475839626129068   0.810872100916743   0.111050598234950   1.0000000
B2   B   0.619068565668674   0.952606343498554   0.111030304187654   1.0000000
B2   B   0.619117945328806   0.095273991732271   0.111023817421618   1.0000000
B2   B   0.619198256277289   0.238035715014022   0.111027317204014   1.0000000
B2   B   0.619371135678216   0.381123727215158   0.111025380451338   1.0000000
B2   B   0.622618172335756   0.526913410702972   0.110929339754600   1.0000000
B2   B   0.623052701484730   0.667966721773696   0.110891716342468   1.0000000
B2   B   0.619184976272172   0.809735559867823   0.111004884137964   1.0000000
B2   B   0.762101292786323   0.952573671613769   0.111024458330893   1.0000000
B2   B   0.761874691839025   0.095277162654858   0.111060435230100   1.0000000
B2   B   0.761901317877661   0.238049675750955   0.111065601940634   1.0000000
B2   B   0.762173438126202   0.381007700164073   0.111027353967468   1.0000000
B2   B   0.763073669303803   0.524260952450705   0.111052728979291   1.0000000
B2   B   0.765447172801204   0.668527730858575   0.111086000363230   1.0000000
B2   B   0.763200001963349   0.810482931420300   0.111062382383597   1.0000000
C2   C   0.472231604792612   0.522809100030479   0.110844493474138   1.0000000
C2   C   0.521165349412273   0.477674286928074   0.110791429999393   1.0000000
C2   C   0.521745012994463   0.616938933742239   0.110393140762242   1.0000000
N2   N   0.952772386129368   0.905080853359772   0.111014902553882   1.0000000
N2   N   0.952068187040061   0.047511259455507   0.111020092661768   1.0000000
N2   N   0.952050010382656   0.190461662610076   0.111041743438245   1.0000000
N2   N   0.952174641287293   0.333376488419800   0.111030130669232   1.0000000
N2   N   0.952591314882333   0.476179311549874   0.110996799552970   1.0000000
N2   N   0.952958157443767   0.619131704757419   0.111028889270934   1.0000000
N2   N   0.953110281053564   0.762238102455506   0.111044896182799   1.0000000
N2   N   0.095289452243762   0.904603709514688   0.111003464442965   1.0000000
N2   N   0.094580061493430   0.046882088008838   0.111025474810869   1.0000000
N2   N   0.093960994722274   0.189533641224016   0.111014566233293   1.0000000
N2   N   0.094542371068612   0.333562781818925   0.110996710934539   1.0000000
N2   N   0.095468690353001   0.476507630097519   0.110993146516959   1.0000000
N2   N   0.095064300493949   0.619156930643180   0.111034880541539   1.0000000
N2   N   0.095380539259987   0.761968368519941   0.111012545102055   1.0000000
N2   N   0.238061036802550   0.904615097102243   0.110998878016816   1.0000000
N2   N   0.237744216358383   0.046720382091419   0.111046374264323   1.0000000
N2   N   0.236318888733844   0.187949046378751   0.111100909785616   1.0000000
N2   N   0.228077795776717   0.328187564695117   0.110714609288782   1.0000000
N2   N   0.239530555046575   0.477728651153914   0.110911412283075   1.0000000
N2   N   0.237266261172859   0.619624589063528   0.111023317182549   1.0000000
N2   N   0.237866448162509   0.762198818422627   0.111041006366924   1.0000000
N2   N   0.380942825412918   0.905041957066940   0.111029468247705   1.0000000
N2   N   0.381009077556476   0.047027610166750   0.111028255301235   1.0000000
N2   N   0.380772128691498   0.188533594051706   0.111057103494972   1.0000000
N2   N   0.383822690855130   0.325411254178932   0.110839104459729   1.0000000
N2   N   0.384425471580982   0.479154670698467   0.111984450465388   1.0000000
N2   N   0.379172332473710   0.620929378256073   0.111121265240901   1.0000000
N2   N   0.380589938055073   0.762968789342233   0.111042245600386   1.0000000
N2   N   0.523850493444363   0.905533077763316   0.111027867991234   1.0000000
N2   N   0.523975150117179   0.047680893123648   0.110993488813510   1.0000000
N2   N   0.524067702113779   0.189863120578306   0.111017739555436   1.0000000
N2   N   0.524356382637661   0.331984068886785   0.111009470298443   1.0000000
N2   N   0.523355168004845   0.763296048467039   0.110932697068403   1.0000000
N2   N   0.666656441380151   0.904718519894394   0.111011994216152   1.0000000
N2   N   0.666692502603967   0.047625215495716   0.111022778687537   1.0000000
N2   N   0.666778539503765   0.190452181778027   0.111031665142253   1.0000000
N2   N   0.666954926594597   0.333511312954264   0.111007687063677   1.0000000
N2   N   0.667817168531240   0.477151530972663   0.111021172525942   1.0000000
N2   N   0.670986111175011   0.621486328559281   0.111057887369055   1.0000000
N2   N   0.667930132769894   0.762668474440711   0.111038347520167   1.0000000
N2   N   0.809986292263940   0.905246825757652   0.111012976073564   1.0000000
N2   N   0.809413623250138   0.047628080478649   0.111033095330450   1.0000000
N2   N   0.809410291173187   0.190429191278012   0.111048816391401   1.0000000
N2   N   0.809543607318492   0.333296509105469   0.111029342751188   1.0000000
N2   N   0.810124608365646   0.476307711874604   0.111017344261265   1.0000000
N2   N   0.811254842321437   0.619626529711305   0.111037392865782   1.0000000
N2   N   0.811223414494112   0.763187021694279   0.111029517990577   1.0000000


