data_1
_audit_creation_method   'vasp2cif'
_cell_length_a    14.93631414619966
_cell_length_b    14.936314146199727
_cell_length_c    13.341276283792837
_cell_angle_alpha    90.0
_cell_angle_beta    90.0
_cell_angle_gamma    119.99999999999984

_symmetry_space_group_name_H-M    'P 1'
loop_
_atom_site_label
_atom_site_type_symbol
_atom_site_fract_x
_atom_site_fract_y
_atom_site_fract_z
_atom_site_occupancy
In2   In   0.444444444444443   0.388888888888886   0.375000000000000   1.0000000
N2   N   0.111085305925609   0.055530647098593   0.124637926183379   1.0000000
N2   N   0.611138918008536   0.555596827076859   0.124745001087943   1.0000000
N2   N   0.444445341172982   0.055530647098593   0.124637926183379   1.0000000
N2   N   0.944452851361081   0.555563137147512   0.125165417010143   1.0000000
N2   N   0.777777777777779   0.055555555555557   0.125025221960702   1.0000000
N2   N   0.111111111111114   0.722222222222221   0.624744858429398   1.0000000
N2   N   0.444445341172982   0.722248027407754   0.625362073816561   1.0000000
N2   N   0.277736506256488   0.222194415324859   0.625254998912125   1.0000000
N2   N   0.777802686234793   0.722248027407754   0.625362073816561   1.0000000
N2   N   0.611123066510646   0.222210266822820   0.625502864486457   1.0000000
N2   N   0.944434820733949   0.222219076529870   0.625086721264307   1.0000000
N2   N   0.277770196185839   0.722223047546866   0.125165417010143   1.0000000
N2   N   0.111087200312312   0.222210266822820   0.124497135513540   1.0000000
N2   N   0.444457909068335   0.222194415324859   0.124745001087943   1.0000000
N2   N   0.611123066510646   0.722246133020937   0.124497135513540   1.0000000
N2   N   0.944452851361081   0.722223047546866   0.125165417010143   1.0000000
N2   N   0.777784255795991   0.222219076529870   0.124913278735607   1.0000000
N2   N   0.111110285786499   0.888880481972248   0.624834582989776   1.0000000
N2   N   0.444449396078968   0.888891364706096   0.624936554508264   1.0000000
N2   N   0.277736506256490   0.388875424264993   0.625254998912125   1.0000000
N2   N   0.611138918008536   0.388875424264993   0.625254998912125   1.0000000
N2   N   0.777784255795991   0.888898512599380   0.625086721264307   1.0000000
N2   N   0.944441968627233   0.388883937254361   0.624936554508264   1.0000000
N2   N   0.111085305925609   0.388887992160346   0.124637926183379   1.0000000
N2   N   0.277770196185839   0.888880481972248   0.125165417010143   1.0000000
N2   N   0.611114256803429   0.888898512599380   0.124913278735607   1.0000000
N2   N   0.444444444444443   0.388888888888886   0.129496728877709   1.0000000
N2   N   0.944441968627233   0.888891364706096   0.125063445491721   1.0000000
N2   N   0.777802686234793   0.388887992160346   0.124637926183379   1.0000000
N2   N   0.277771488483139   0.555561844850198   0.625211808783295   1.0000000
N2   N   0.111085305925609   0.055530647098593   0.625362073816561   1.0000000
N2   N   0.611138918008536   0.555596827076859   0.625254998912125   1.0000000
N2   N   0.444445341172982   0.055530647098593   0.625362073816561   1.0000000
N2   N   0.944452851361081   0.555563137147512   0.624834582989776   1.0000000
N2   N   0.111110285786499   0.555563137147512   0.125165417010143   1.0000000
N2   N   0.777777777777779   0.055555555555557   0.624974778039349   1.0000000
N2   N   0.277771488483139   0.055542976966341   0.124788191216716   1.0000000
N2   N   0.444457909068335   0.555596827076859   0.124745001087943   1.0000000
N2   N   0.777790356367057   0.555561844850198   0.124788191216716   1.0000000
N2   N   0.611114256803429   0.055549077537368   0.124913278735607   1.0000000
N2   N   0.444457909068335   0.555596827076859   0.625254998912125   1.0000000
N2   N   0.944434820733949   0.055549077537368   0.124913278735607   1.0000000
N2   N   0.277770196185839   0.722223047546866   0.624834582989776   1.0000000
N2   N   0.111087200312312   0.222210266822820   0.625502864486457   1.0000000
N2   N   0.444457909068335   0.222194415324859   0.625254998912125   1.0000000
N2   N   0.611123066510646   0.722246133020937   0.625502864486457   1.0000000
N2   N   0.944452851361081   0.722223047546866   0.624834582989776   1.0000000
N2   N   0.777784255795991   0.222219076529870   0.625086721264307   1.0000000
N2   N   0.111111111111114   0.722222222222221   0.125255141570621   1.0000000
N2   N   0.444445341172982   0.722248027407754   0.124637926183379   1.0000000
N2   N   0.277736506256490   0.222194415324859   0.124745001087943   1.0000000
N2   N   0.777802686234793   0.722248027407754   0.124637926183379   1.0000000
N2   N   0.611123066510646   0.222210266822820   0.124497135513540   1.0000000
N2   N   0.944434820733949   0.222219076529870   0.124913278735607   1.0000000
N2   N   0.111085305925609   0.388887992160346   0.625362073816561   1.0000000
N2   N   0.277770196185839   0.888880481972248   0.624834582989776   1.0000000
N2   N   0.611114256803429   0.888898512599380   0.625086721264307   1.0000000
N2   N   0.444444444444443   0.388888888888886   0.620503271122222   1.0000000
N2   N   0.944441968627233   0.888891364706096   0.624936554508264   1.0000000
N2   N   0.111110285786499   0.888880481972248   0.125165417010143   1.0000000
N2   N   0.777802686234793   0.388887992160346   0.625362073816561   1.0000000
N2   N   0.444449396078968   0.888891364706096   0.125063445491721   1.0000000
N2   N   0.277736506256488   0.388875424264993   0.124745001087943   1.0000000
N2   N   0.277771488483139   0.555561844850198   0.124788191216716   1.0000000
N2   N   0.611138918008536   0.388875424264993   0.124745001087943   1.0000000
N2   N   0.777784255795991   0.888898512599380   0.124913278735607   1.0000000
N2   N   0.944441968627233   0.388883937254361   0.125063445491721   1.0000000
N2   N   0.111110285786499   0.555563137147512   0.624834582989776   1.0000000
N2   N   0.277771488483139   0.055542976966341   0.625211808783295   1.0000000
N2   N   0.777790356367057   0.555561844850198   0.625211808783295   1.0000000
N2   N   0.611114256803429   0.055549077537368   0.625086721264307   1.0000000
N2   N   0.944434820733949   0.055549077537368   0.625086721264307   1.0000000
N2   N   0.053951252379823   0.110082633243548   0.375000000000000   1.0000000
N2   N   0.556270111454777   0.612540222909399   0.375000000000000   1.0000000
N2   N   0.387277983486748   0.101473800941270   0.375000000000000   1.0000000
N2   N   0.892139498219321   0.612736415776397   0.375000000000000   1.0000000
N2   N   0.722522923132985   0.110810410200383   0.375000000000000   1.0000000
N2   N   0.055554926448915   0.777778406884360   0.875000000000000   1.0000000
N2   N   0.388888936729382   0.777780913258107   0.875000000000000   1.0000000
N2   N   0.222225766707120   0.277779550020236   0.875000000000000   1.0000000
N2   N   0.722222620981028   0.777779501870607   0.875000000000000   1.0000000
N2   N   0.555553783313011   0.277779550020236   0.875000000000000   1.0000000
N2   N   0.888888539852366   0.277777079704912   0.875000000000000   1.0000000
N2   N   0.221588006456194   0.777460669894851   0.375000000000000   1.0000000
N2   N   0.053951252379823   0.277201952469544   0.375000000000000   1.0000000
N2   N   0.372518150753877   0.245036301507772   0.375000000000000   1.0000000
N2   N   0.556131380863815   0.779382080953500   0.375000000000000   1.0000000
N2   N   0.891598376967331   0.779983303997363   0.375000000000000   1.0000000
N2   N   0.723250700089812   0.277201952469544   0.375000000000000   1.0000000
N2   N   0.055552420075102   0.944441356804546   0.875000000000000   1.0000000
N2   N   0.388888936729382   0.944441356804546   0.875000000000000   1.0000000
N2   N   0.222224412384108   0.444443815962470   0.875000000000000   1.0000000
N2   N   0.555537892105869   0.444435612719602   0.875000000000000   1.0000000
N2   N   0.722221923769311   0.944443847538778   0.875000000000000   1.0000000
N2   N   0.888891976528783   0.444444396603947   0.875000000000000   1.0000000
N2   N   0.053350029336041   0.444948406303330   0.375000000000000   1.0000000
N2   N   0.220596917557020   0.941193835114007   0.375000000000000   1.0000000
N2   N   0.556024200742520   0.944678767038008   0.375000000000000   1.0000000
N2   N   0.372518150753877   0.460815182579452   0.375000000000000   1.0000000
N2   N   0.888654566295321   0.944678767038008   0.375000000000000   1.0000000
N2   N   0.731859532392075   0.446055349846581   0.375000000000000   1.0000000
N2   N   0.222220705188163   0.611112628145243   0.875000000000000   1.0000000
N2   N   0.055553831462916   0.111110712352250   0.875000000000000   1.0000000
N2   N   0.555553783313011   0.611107566626199   0.875000000000000   1.0000000
N2   N   0.388889517370859   0.111113929755036   0.875000000000000   1.0000000
N2   N   0.888891922957036   0.611112628145243   0.875000000000000   1.0000000
N2   N   0.055872663438564   0.611745326877116   0.375000000000000   1.0000000
N2   N   0.722221923769311   0.111111409563952   0.875000000000000   1.0000000
N2   N   0.214195817454528   0.101473800941270   0.375000000000000   1.0000000
N2   N   0.387277983486748   0.619137515878731   0.375000000000000   1.0000000
N2   N   0.731859532392075   0.619137515878731   0.375000000000000   1.0000000
N2   N   0.556131380863815   0.110082633243548   0.375000000000000   1.0000000
N2   N   0.388889517370859   0.611108920949183   0.875000000000000   1.0000000
N2   N   0.888287487067400   0.110810410200383   0.375000000000000   1.0000000
N2   N   0.222223480435496   0.777778406884360   0.875000000000000   1.0000000
N2   N   0.055553831462916   0.277776452444001   0.875000000000000   1.0000000
N2   N   0.388897720613726   0.277795441227661   0.875000000000000   1.0000000
N2   N   0.555556880889404   0.777779501870607   0.875000000000000   1.0000000
N2   N   0.888891976528783   0.777780913258107   0.875000000000000   1.0000000
N2   N   0.722222620981028   0.277776452444001   0.875000000000000   1.0000000
N2   N   0.055872663438564   0.777460669894851   0.375000000000000   1.0000000
N2   N   0.388384927029998   0.779983303997363   0.375000000000000   1.0000000
N2   N   0.220793110423973   0.277063221878640   0.375000000000000   1.0000000
N2   N   0.723250700089812   0.779382080953500   0.375000000000000   1.0000000
N2   N   0.556270111454777   0.277063221878640   0.375000000000000   1.0000000
N2   N   0.888654566295321   0.277309132590822   0.375000000000000   1.0000000
N2   N   0.055552420075102   0.444444396603947   0.875000000000000   1.0000000
N2   N   0.222220705188163   0.944441410376292   0.875000000000000   1.0000000
N2   N   0.555556253628431   0.944444793480962   0.875000000000000   1.0000000
N2   N   0.388897720613726   0.444435612719602   0.875000000000000   1.0000000
N2   N   0.888888539852366   0.944444793480962   0.875000000000000   1.0000000
N2   N   0.053350029336041   0.941734956365997   0.375000000000000   1.0000000
N2   N   0.722219403578221   0.444443815962470   0.875000000000000   1.0000000
N2   N   0.388384927029998   0.941734956365997   0.375000000000000   1.0000000
N2   N   0.214195817454528   0.446055349846581   0.375000000000000   1.0000000
N2   N   0.220596917557020   0.612736415776397   0.375000000000000   1.0000000
N2   N   0.588297031825568   0.460815182579452   0.375000000000000   1.0000000
N2   N   0.722522923132985   0.945045846265929   0.375000000000000   1.0000000
N2   N   0.891598376967331   0.444948406303330   0.375000000000000   1.0000000
N2   N   0.055554926448915   0.611109852897842   0.875000000000000   1.0000000
N2   N   0.222224412384108   0.111113929755036   0.875000000000000   1.0000000
N2   N   0.722219403578221   0.611108920949183   0.875000000000000   1.0000000
N2   N   0.555556880889404   0.111110712352250   0.875000000000000   1.0000000
N2   N   0.888889485794550   0.111111409563952   0.875000000000000   1.0000000
B2   B   0.105881004436119   0.050808025986341   0.375000000000000   1.0000000
B2   B   0.622963105453859   0.565514265532989   0.375000000000000   1.0000000
B2   B   0.444927021550245   0.050808025986341   0.375000000000000   1.0000000
B2   B   0.945845016899457   0.555934489309694   0.375000000000000   1.0000000
B2   B   0.777777777777779   0.055555555555557   0.375000000000000   1.0000000
B2   B   0.111111111111114   0.722222222222221   0.875000000000000   1.0000000
B2   B   0.444445860290938   0.722234034432949   0.875000000000000   1.0000000
B2   B   0.277746034787732   0.222211696568003   0.875000000000000   1.0000000
B2   B   0.777788174142105   0.722234034432949   0.875000000000000   1.0000000
B2   B   0.611114332376661   0.222219000956584   0.875000000000000   1.0000000
B2   B   0.944430093217892   0.222225248630499   0.875000000000000   1.0000000
B2   B   0.277398844023700   0.723243860923227   0.375000000000000   1.0000000
B2   B   0.109704420575230   0.221518876954272   0.375000000000000   1.0000000
B2   B   0.442551160078960   0.210370227879502   0.375000000000000   1.0000000
B2   B   0.611814456379158   0.723628912758216   0.375000000000000   1.0000000
B2   B   0.945845016899457   0.723243860923226   0.375000000000000   1.0000000
B2   B   0.778016967678456   0.221504636141423   0.375000000000000   1.0000000
B2   B   0.111125498206411   0.888890268554166   0.875000000000000   1.0000000
B2   B   0.444459507788882   0.888896420561069   0.875000000000000   1.0000000
B2   B   0.277746034787732   0.388867671553086   0.875000000000000   1.0000000
B2   B   0.611121636765458   0.388867671553086   0.875000000000000   1.0000000
B2   B   0.777795155412656   0.888903240115444   0.875000000000000   1.0000000
B2   B   0.944436912772259   0.388873825544446   0.875000000000000   1.0000000
B2   B   0.105881004436119   0.388406311783084   0.375000000000000   1.0000000
B2   B   0.277398844023700   0.887488316433872   0.375000000000000   1.0000000
B2   B   0.611828697192007   0.889845664870285   0.375000000000000   1.0000000
B2   B   0.944148095660208   0.889185237673121   0.375000000000000   1.0000000
B2   B   0.782525307347077   0.388406311783084   0.375000000000000   1.0000000
B2   B   0.277763010358430   0.555570322974974   0.875000000000000   1.0000000
B2   B   0.111099298900431   0.055545159191259   0.875000000000000   1.0000000
B2   B   0.611121636765458   0.555587298545655   0.875000000000000   1.0000000
B2   B   0.444445860290938   0.055545159191259   0.875000000000000   1.0000000
B2   B   0.944443064779162   0.555568562985572   0.875000000000000   1.0000000
B2   B   0.110089472410180   0.555934489309694   0.375000000000000   1.0000000
B2   B   0.777777777777779   0.055555555555557   0.875000000000000   1.0000000
B2   B   0.275303593682399   0.050607187364720   0.375000000000000   1.0000000
B2   B   0.442551160078960   0.565514265532989   0.375000000000000   1.0000000
B2   B   0.782726145968539   0.558029739650965   0.375000000000000   1.0000000
B2   B   0.611828697192006   0.055316365654938   0.375000000000000   1.0000000
B2   B   0.444465661780243   0.555587298545655   0.875000000000000   1.0000000
B2   B   0.943487668463043   0.055316365654938   0.375000000000000   1.0000000
B2   B   0.277764770347634   0.722207835126939   0.875000000000000   1.0000000
B2   B   0.111104668579866   0.222219000956584   0.875000000000000   1.0000000
B2   B   0.444465661780243   0.222211696568003   0.875000000000000   1.0000000
B2   B   0.611114332376661   0.722228664753430   0.875000000000000   1.0000000
B2   B   0.944443064779162   0.722207835126939   0.875000000000000   1.0000000
B2   B   0.777795155412656   0.222225248630499   0.875000000000000   1.0000000
B2   B   0.111111111111114   0.722222222222221   0.375000000000000   1.0000000
B2   B   0.444927021550245   0.727452328897264   0.375000000000000   1.0000000
B2   B   0.267819067800492   0.210370227879502   0.375000000000000   1.0000000
B2   B   0.782525307347077   0.727452328897264   0.375000000000000   1.0000000
B2   B   0.611814456379157   0.221518876954272   0.375000000000000   1.0000000
B2   B   0.943487668463043   0.221504636141423   0.375000000000000   1.0000000
B2   B   0.111099298900431   0.388887473042391   0.875000000000000   1.0000000
B2   B   0.277764770347634   0.888890268554166   0.875000000000000   1.0000000
B2   B   0.611108084702765   0.888903240115444   0.875000000000000   1.0000000
B2   B   0.444444444444443   0.388888888888886   0.875000000000000   1.0000000
B2   B   0.944436912772259   0.888896420561069   0.875000000000000   1.0000000
B2   B   0.110089472410180   0.887488316433872   0.375000000000000   1.0000000
B2   B   0.777788174142105   0.388887473042391   0.875000000000000   1.0000000
B2   B   0.445037142012997   0.889185237673121   0.375000000000000   1.0000000
B2   B   0.267819067800492   0.390782173254368   0.375000000000000   1.0000000
B2   B   0.275303593682399   0.558029739650965   0.375000000000000   1.0000000
B2   B   0.622963105453859   0.390782173254368   0.375000000000000   1.0000000
B2   B   0.778016967678456   0.889845664870285   0.375000000000000   1.0000000
B2   B   0.944148095660208   0.388296191320331   0.375000000000000   1.0000000
B2   B   0.111125498206411   0.555568562985572   0.875000000000000   1.0000000
B2   B   0.277763010358430   0.055526020716868   0.875000000000000   1.0000000
B2   B   0.777807312616468   0.555570322974974   0.875000000000000   1.0000000
B2   B   0.611108084702765   0.055538177920716   0.875000000000000   1.0000000
B2   B   0.944430093217892   0.055538177920716   0.875000000000000   1.0000000
B2   B   0.055527599464564   0.111061014809089   0.124526834041173   1.0000000
B2   B   0.555615620792883   0.611231241586027   0.124500909069201   1.0000000
B2   B   0.388864997023082   0.110977851177613   0.124496234811255   1.0000000
B2   B   0.888934039143213   0.611133686238308   0.124902845633942   1.0000000
B2   B   0.722240882941168   0.111092450392084   0.124817431441070   1.0000000
B2   B   0.055575223404254   0.777758109929148   0.624945157257825   1.0000000
B2   B   0.388890914310821   0.777782722657771   0.625161091766635   1.0000000
B2   B   0.222102091747400   0.277717712540326   0.625499090930777   1.0000000
B2   B   0.722272318524211   0.777805733868886   0.625473165958840   1.0000000
B2   B   0.555615620792883   0.277717712540326   0.625499090930777   1.0000000
B2   B   0.888890570261904   0.277781140523742   0.625165690849779   1.0000000
B2   B   0.222182886524814   0.777758109929148   0.125054842742084   1.0000000
B2   B   0.055527599464564   0.277799917988816   0.124526834041173   1.0000000
B2   B   0.388708601758724   0.277417203517525   0.125823642671890   1.0000000
B2   B   0.555533415344516   0.777805733868886   0.124526834041173   1.0000000
B2   B   0.888891808346823   0.777782722657771   0.124838908233409   1.0000000
B2   B   0.722272318524211   0.277799917988816   0.124526834041173   1.0000000
B2   B   0.055550610675580   0.944441524986505   0.625161091766635   1.0000000
B2   B   0.388890914310821   0.944441524986505   0.625161091766635   1.0000000
B2   B   0.222112854154589   0.444468336310247   0.625503765188833   1.0000000
B2   B   0.555916129815888   0.444624731574605   0.624176357328159   1.0000000
B2   B   0.722240882941168   0.944481765882516   0.625182568558858   1.0000000
B2   B   0.888891808346823   0.444442419022507   0.625161091766635   1.0000000
B2   B   0.055550610675580   0.444442419022507   0.124838908233409   1.0000000
B2   B   0.222199647095069   0.944399294190116   0.124902845633942   1.0000000
B2   B   0.555552192809532   0.944442763071425   0.124834309150160   1.0000000
B2   B   0.388708601758724   0.444624731574605   0.125823642671890   1.0000000
B2   B   0.888890570261904   0.944442763071425   0.124834309150160   1.0000000
B2   B   0.722355482155583   0.444468336310247   0.124496234811255   1.0000000
B2   B   0.222199647095069   0.611133686238308   0.625097154366107   1.0000000
B2   B   0.055527599464564   0.111061014809089   0.625473165958840   1.0000000
B2   B   0.555615620792883   0.611231241586027   0.625499090930777   1.0000000
B2   B   0.388864997023082   0.110977851177612   0.625503765188833   1.0000000
B2   B   0.888934039143213   0.611133686238308   0.625097154366107   1.0000000
B2   B   0.055575223404254   0.611150446808610   0.125054842742084   1.0000000
B2   B   0.722240882941168   0.111092450392083   0.625182568558858   1.0000000
B2   B   0.222112854154589   0.110977851177613   0.124496234811255   1.0000000
B2   B   0.388864997023082   0.611220479178730   0.124496234811255   1.0000000
B2   B   0.722355482155583   0.611220479178730   0.124496234811255   1.0000000
B2   B   0.555533415344516   0.111061014809089   0.124526834041173   1.0000000
B2   B   0.388864997023082   0.611220479178730   0.625503765188833   1.0000000
B2   B   0.888851567450813   0.111092450392083   0.124817431441070   1.0000000
B2   B   0.222182886524814   0.777758109929148   0.624945157257825   1.0000000
B2   B   0.055527599464564   0.277799917988816   0.625473165958840   1.0000000
B2   B   0.388708601758724   0.277417203517525   0.624176357328159   1.0000000
B2   B   0.555533415344516   0.777805733868886   0.625473165958840   1.0000000
B2   B   0.888891808346823   0.777782722657771   0.625161091766635   1.0000000
B2   B   0.722272318524211   0.277799917988816   0.625473165958840   1.0000000
B2   B   0.055575223404254   0.777758109929148   0.125054842742084   1.0000000
B2   B   0.388890914310821   0.777782722657771   0.124838908233409   1.0000000
B2   B   0.222102091747400   0.277717712540326   0.124500909069201   1.0000000
B2   B   0.722272318524211   0.777805733868886   0.124526834041173   1.0000000
B2   B   0.555615620792883   0.277717712540326   0.124500909069201   1.0000000
B2   B   0.888890570261904   0.277781140523742   0.124834309150160   1.0000000
B2   B   0.055550610675580   0.444442419022507   0.625161091766635   1.0000000
B2   B   0.222199647095069   0.944399294190116   0.625097154366107   1.0000000
B2   B   0.555552192809532   0.944442763071425   0.625165690849779   1.0000000
B2   B   0.388708601758724   0.444624731574605   0.624176357328159   1.0000000
B2   B   0.888890570261904   0.944442763071425   0.625165690849779   1.0000000
B2   B   0.055550610675580   0.944441524986505   0.124838908233409   1.0000000
B2   B   0.722355482155583   0.444468336310247   0.625503765188833   1.0000000
B2   B   0.388890914310821   0.944441524986505   0.124838908233409   1.0000000
B2   B   0.222112854154589   0.444468336310247   0.124496234811255   1.0000000
B2   B   0.222199647095069   0.611133686238308   0.124902845633942   1.0000000
B2   B   0.555916129815888   0.444624731574605   0.125823642671890   1.0000000
B2   B   0.722240882941168   0.944481765882516   0.124817431441070   1.0000000
B2   B   0.888891808346823   0.444442419022507   0.124838908233409   1.0000000
B2   B   0.055575223404254   0.611150446808610   0.624945157257825   1.0000000
B2   B   0.222112854154589   0.110977851177613   0.625503765188833   1.0000000
B2   B   0.722355482155583   0.611220479178730   0.625503765188833   1.0000000
B2   B   0.555533415344516   0.111061014809089   0.625473165958840   1.0000000
B2   B   0.888851567450813   0.111092450392083   0.625182568558858   1.0000000


