data_1
_audit_creation_method   'vasp2cif'
_cell_length_a    17.52789999999977
_cell_length_b    17.52789999999977
_cell_length_c    15.0
_cell_angle_alpha    90.0
_cell_angle_beta    90.0
_cell_angle_gamma    119.99999999999916

_symmetry_space_group_name_H-M    'P 1'
loop_
_atom_site_label
_atom_site_type_symbol
_atom_site_fract_x
_atom_site_fract_y
_atom_site_fract_z
_atom_site_occupancy
B2   B   0.904881738660848   0.952615526640642   0.105403046629881   1.0000000
B2   B   0.904806670800802   0.095400487134121   0.106110895404186   1.0000000
B2   B   0.904853700298325   0.238228854011986   0.105840058412149   1.0000000
B2   B   0.904873619296581   0.381078150456865   0.104900830401711   1.0000000
B2   B   0.905102390253454   0.523999361645679   0.104594082397355   1.0000000
B2   B   0.905272336578626   0.667057788694436   0.105549232254838   1.0000000
B2   B   0.905279118789416   0.810045457333771   0.104923364034022   1.0000000
B2   B   0.047686283430032   0.952526895040393   0.104753122044556   1.0000000
B2   B   0.047537035934518   0.095348816271247   0.105157112105296   1.0000000
B2   B   0.047513745136449   0.238180825150188   0.105596674615164   1.0000000
B2   B   0.047647730812379   0.381074538570630   0.104868470659007   1.0000000
B2   B   0.047699392599483   0.523991791398103   0.104667129898097   1.0000000
B2   B   0.047825141049870   0.666908275605664   0.105097667095919   1.0000000
B2   B   0.047882938532894   0.809809550458482   0.105114870334695   1.0000000
B2   B   0.190551429967755   0.952514871835788   0.105484845534384   1.0000000
B2   B   0.190051084030664   0.094895118748113   0.105324568800675   1.0000000
B2   B   0.190110032393832   0.238226943313720   0.107523351327472   1.0000000
B2   B   0.190360466752374   0.380887236858406   0.106749555723887   1.0000000
B2   B   0.190319919843205   0.524005167328490   0.104520788244699   1.0000000
B2   B   0.190489225494090   0.666910608480549   0.105069034074610   1.0000000
B2   B   0.190577947160541   0.809742563205191   0.105815079414043   1.0000000
B2   B   0.333393759174804   0.952526856933481   0.105569160933960   1.0000000
B2   B   0.333324688324055   0.095190616103203   0.107506728903537   1.0000000
B2   B   0.331301157091183   0.236500972745979   0.116131736594014   1.0000000
B2   B   0.332781588989064   0.380596651464984   0.121930991313782   1.0000000
B2   B   0.332548173389377   0.524226492859384   0.111311257526751   1.0000000
B2   B   0.333222353502585   0.667096167513577   0.105531963707279   1.0000000
B2   B   0.333351308650698   0.809828555852754   0.105147780258960   1.0000000
B2   B   0.476279706032336   0.952550488769255   0.104898494607298   1.0000000
B2   B   0.476307664375291   0.094908838269887   0.105527626562072   1.0000000
B2   B   0.476658491825411   0.236503993234642   0.116191937821675   1.0000000
B2   B   0.461765183780500   0.352087741348406   0.167737158927736   1.0000000
B2   B   0.470394285237035   0.529614997767290   0.149321757890029   1.0000000
B2   B   0.476092866375289   0.668055190776073   0.112081605165635   1.0000000
B2   B   0.476215677495468   0.810094074819908   0.104980361890362   1.0000000
B2   B   0.619190606495636   0.952630723609268   0.105468603223287   1.0000000
B2   B   0.619261469057427   0.095372210366236   0.105267555476033   1.0000000
B2   B   0.619582688732812   0.238252362019516   0.107669970144208   1.0000000
B2   B   0.619254464479759   0.380586595651941   0.122078547786707   1.0000000
B2   B   0.630528810874694   0.529561515486087   0.149527584430601   1.0000000
B2   B   0.619520134742054   0.667642753598471   0.122644276027252   1.0000000
B2   B   0.619195695113000   0.809935361999152   0.107861698267222   1.0000000
B2   B   0.762068638660651   0.952656670938495   0.106345980884001   1.0000000
B2   B   0.762049731256937   0.095399601907516   0.106121733204375   1.0000000
B2   B   0.762147866005307   0.238197701736304   0.105653384202419   1.0000000
B2   B   0.761990266552807   0.380909301997740   0.106837514686944   1.0000000
B2   B   0.763071782219704   0.524190318420835   0.111517921814915   1.0000000
B2   B   0.763335895800502   0.668001755262630   0.112186731962524   1.0000000
B2   B   0.762178221852814   0.809922528567412   0.107843056945036   1.0000000
N2   N   0.952539390845843   0.905047577202325   0.104769817030714   1.0000000
N2   N   0.952332050513000   0.047723414940997   0.105599875120191   1.0000000
N2   N   0.952340351936996   0.190565081578470   0.106027340616421   1.0000000
N2   N   0.952455066871082   0.333459915866896   0.105254493135156   1.0000000
N2   N   0.952564668933888   0.476345039126201   0.104529975338764   1.0000000
N2   N   0.952647057449276   0.619295392763270   0.104730121221912   1.0000000
N2   N   0.952688175199718   0.762255992640377   0.104812831352056   1.0000000
N2   N   0.095336553334157   0.904945407369986   0.105099371918627   1.0000000
N2   N   0.094996513939030   0.047549792573591   0.104641841719442   1.0000000
N2   N   0.094962744953911   0.190509202215843   0.105476999269015   1.0000000
N2   N   0.095149785895032   0.333410899215643   0.105182222665142   1.0000000
N2   N   0.095210561777634   0.476350263600516   0.104494581560345   1.0000000
N2   N   0.095333245648561   0.619254591085856   0.105058910609380   1.0000000
N2   N   0.095390591065723   0.762135125510092   0.105612413945884   1.0000000
N2   N   0.238164307695051   0.904911889387748   0.105898201519238   1.0000000
N2   N   0.238045293418836   0.047628945324938   0.105681385046303   1.0000000
N2   N   0.237112933013549   0.189891188059718   0.107208237672218   1.0000000
N2   N   0.237830677670083   0.333394880939601   0.110083794295868   1.0000000
N2   N   0.237807984737479   0.476365064488952   0.105618890843033   1.0000000
N2   N   0.238073734272696   0.619307088796326   0.104685788925458   1.0000000
N2   N   0.238160257897384   0.762138728997591   0.105603838858784   1.0000000
N2   N   0.381041573795635   0.904962559109435   0.105204297337401   1.0000000
N2   N   0.381036562507056   0.047638764062974   0.105819402049853   1.0000000
N2   N   0.380857554288873   0.190265459447581   0.112876431890314   1.0000000
N2   N   0.377503573658863   0.331182570138608   0.130089170210617   1.0000000
N2   N   0.379669043048551   0.476913613694158   0.125357012334462   1.0000000
N2   N   0.380892934870111   0.619603591052211   0.108740085664756   1.0000000
N2   N   0.381009326724744   0.762287285566657   0.104852937251664   1.0000000
N2   N   0.523966946853925   0.905086233041196   0.104875788803142   1.0000000
N2   N   0.524013790100092   0.047568728563036   0.104833658020681   1.0000000
N2   N   0.524244024645398   0.189899115849919   0.107373292558123   1.0000000
N2   N   0.525118948758632   0.331166578162815   0.130147655280645   1.0000000
N2   N   0.523618457190828   0.621165983844108   0.126158799190925   1.0000000
N2   N   0.523998658640558   0.762710698095290   0.106539125125174   1.0000000
N2   N   0.666823223982902   0.904960718925985   0.106152968102137   1.0000000
N2   N   0.666847339813955   0.047741467881323   0.105651760323440   1.0000000
N2   N   0.667021234081233   0.190532534726565   0.105585426295185   1.0000000
N2   N   0.667025109975903   0.333410576461283   0.110211961804176   1.0000000
N2   N   0.668638131806361   0.476899404317237   0.125652169552872   1.0000000
N2   N   0.668910096465460   0.621124008253183   0.126328936187896   1.0000000
N2   N   0.666723121025946   0.762016244639618   0.111275236797482   1.0000000
N2   N   0.809584042433798   0.904946986576874   0.106108845305037   1.0000000
N2   N   0.809596407193801   0.047741014793715   0.106420205793349   1.0000000
N2   N   0.809692015238468   0.190569981302907   0.106048853817242   1.0000000
N2   N   0.809715308562225   0.333415337139371   0.105229288318675   1.0000000
N2   N   0.809978990823794   0.476364114061837   0.105737865542828   1.0000000
N2   N   0.810104171188826   0.619568442034321   0.108850290853333   1.0000000
N2   N   0.810113601271226   0.762662739964298   0.106527386225750   1.0000000
As2   As   0.524862606377603   0.478703764703930   0.231283316136640   1.0000000


