data_1
_audit_creation_method   'vasp2cif'
_cell_length_a    17.52789999999977
_cell_length_b    17.52789999999977
_cell_length_c    15.0
_cell_angle_alpha    90.0
_cell_angle_beta    90.0
_cell_angle_gamma    119.99999999999916

_symmetry_space_group_name_H-M    'P 1'
loop_
_atom_site_label
_atom_site_type_symbol
_atom_site_fract_x
_atom_site_fract_y
_atom_site_fract_z
_atom_site_occupancy
B2   B   0.905596206332163   0.953637039730134   0.111013670332624   1.0000000
B2   B   0.904957001820307   0.095978870386861   0.111047574629564   1.0000000
B2   B   0.904658820210809   0.238588986542141   0.111111774610924   1.0000000
B2   B   0.904495268613201   0.381305379681876   0.111013602120760   1.0000000
B2   B   0.904781514412885   0.524239404726811   0.111040699045941   1.0000000
B2   B   0.904761316738185   0.667264688961814   0.111085551969080   1.0000000
B2   B   0.905692475773948   0.810899332779333   0.111069964235964   1.0000000
B2   B   0.047707840013632   0.952605404173274   0.111018996036696   1.0000000
B2   B   0.047350767513537   0.095237145193576   0.110969235864665   1.0000000
B2   B   0.047165411781827   0.238165601786177   0.110894065028180   1.0000000
B2   B   0.047096237879812   0.381170594460886   0.110891175120608   1.0000000
B2   B   0.047122317110298   0.524046721551190   0.110958447968410   1.0000000
B2   B   0.047358564358996   0.666802897425256   0.111065946293658   1.0000000
B2   B   0.047533054318694   0.809633295876822   0.111014175399921   1.0000000
B2   B   0.190011958093527   0.951771339590924   0.111023330816576   1.0000000
B2   B   0.189542348892089   0.094089426124753   0.110967532178906   1.0000000
B2   B   0.188959741607307   0.236600168493291   0.110824507254035   1.0000000
B2   B   0.189245420639691   0.380471258210834   0.110923468596453   1.0000000
B2   B   0.189279294166148   0.524078936285627   0.110841045217168   1.0000000
B2   B   0.190070649587258   0.666791673925196   0.110980736625306   1.0000000
B2   B   0.190138360711991   0.809310653325911   0.111028301615255   1.0000000
B2   B   0.332922588196937   0.951750195557149   0.111082498897450   1.0000000
B2   B   0.332417494889377   0.093742665060405   0.111093425330414   1.0000000
B2   B   0.331159914557619   0.235113453649787   0.110768090392155   1.0000000
B2   B   0.329873701042956   0.376467516657063   0.111614811771903   1.0000000
B2   B   0.330312741338281   0.524583812588525   0.111787830823503   1.0000000
B2   B   0.332873836704995   0.667222381712558   0.110830071689167   1.0000000
B2   B   0.333070770584401   0.809516804805293   0.110985673990146   1.0000000
B2   B   0.476083704381756   0.952291104838491   0.110966979662392   1.0000000
B2   B   0.475782151249348   0.094134851473206   0.111096395432631   1.0000000
B2   B   0.475057727016790   0.235206183212454   0.111011503708162   1.0000000
B2   B   0.473458103510252   0.374585245076468   0.110955656798255   1.0000000
B2   B   0.476143902137418   0.669529410887939   0.111656305771111   1.0000000
B2   B   0.476318342119885   0.810428381209973   0.110920833106228   1.0000000
B2   B   0.619413232763475   0.953180905198221   0.110920204127987   1.0000000
B2   B   0.619035601802751   0.095313265923265   0.111001502904284   1.0000000
B2   B   0.618845446401764   0.237562872377846   0.111043788203732   1.0000000
B2   B   0.617707152168350   0.379748422678695   0.110929585190234   1.0000000
B2   B   0.628132560451690   0.670980846529763   0.111456195503078   1.0000000
B2   B   0.620687235847479   0.811438710113342   0.111016949695620   1.0000000
B2   B   0.762734264818676   0.953734960495360   0.110908290462020   1.0000000
B2   B   0.762108242971744   0.095963503977003   0.111064180045802   1.0000000
B2   B   0.761881528546238   0.238508228999323   0.111103468351801   1.0000000
B2   B   0.761760441903925   0.381378854674819   0.111021996355827   1.0000000
B2   B   0.762894810537924   0.526002209887231   0.110998303500041   1.0000000
B2   B   0.761463058179909   0.668196377841748   0.110933497658894   1.0000000
B2   B   0.764227128784161   0.812059589774059   0.111032152730131   1.0000000
P2   P   0.480828361626887   0.521548635115708   0.109511103335547   1.0000000
N2   N   0.953365833196937   0.906286293409257   0.111019954288608   1.0000000
N2   N   0.952742064581929   0.048704863056341   0.111013584824947   1.0000000
N2   N   0.952332736418878   0.191089832792834   0.111041764659719   1.0000000
N2   N   0.952220529791288   0.333658132688630   0.111012162633967   1.0000000
N2   N   0.952394657915469   0.476372499951945   0.110978851885557   1.0000000
N2   N   0.952825491830999   0.619472138743530   0.111070433657246   1.0000000
N2   N   0.953237775540185   0.762913170536640   0.111049315552669   1.0000000
N2   N   0.095308276061632   0.904907255895927   0.110971871918160   1.0000000
N2   N   0.094932025275841   0.047627901328163   0.110990914446384   1.0000000
N2   N   0.094450681792088   0.190265236235397   0.110822206015557   1.0000000
N2   N   0.094640012072226   0.333396537706281   0.110751310888507   1.0000000
N2   N   0.094644989097520   0.476334134589310   0.110811133209764   1.0000000
N2   N   0.095176027540303   0.619189128437573   0.111021321587609   1.0000000
N2   N   0.095362978935067   0.762039193615628   0.111006710645462   1.0000000
N2   N   0.237864931353665   0.904373556924218   0.111027840869859   1.0000000
N2   N   0.237388734020099   0.046728378724814   0.111024270528681   1.0000000
N2   N   0.236434560860232   0.188925011799770   0.110796513054876   1.0000000
N2   N   0.236004607090494   0.331836898338305   0.110982431094409   1.0000000
N2   N   0.236451339689561   0.476042507752515   0.111018984650221   1.0000000
N2   N   0.237799737418744   0.619195430777077   0.110792060163784   1.0000000
N2   N   0.237979313779330   0.761865216106423   0.110999954448524   1.0000000
N2   N   0.380803710685293   0.904487530619721   0.111020648270478   1.0000000
N2   N   0.380449607714198   0.046599432628900   0.111111634658277   1.0000000
N2   N   0.379518989367412   0.188353151795054   0.110927905101767   1.0000000
N2   N   0.377841265495917   0.329799841668482   0.110773130286936   1.0000000
N2   N   0.375019507535711   0.473484414809355   0.112778340287820   1.0000000
N2   N   0.380718929114857   0.619427272567828   0.111041548078670   1.0000000
N2   N   0.380900549595162   0.762143000000032   0.110820089842395   1.0000000
N2   N   0.523953832197789   0.905255128362643   0.110864378346249   1.0000000
N2   N   0.523713603011810   0.047115196718890   0.110989028709600   1.0000000
N2   N   0.523294463249758   0.188617063316413   0.111064702795802   1.0000000
N2   N   0.521826783990560   0.328925860405194   0.110946471338429   1.0000000
N2   N   0.524567348051278   0.467187140500571   0.110761998317279   1.0000000
N2   N   0.527627932009440   0.625253487417408   0.112225796783071   1.0000000
N2   N   0.524292535317476   0.763511789269454   0.111120180925755   1.0000000
N2   N   0.667379563444128   0.906448867839613   0.110826583846013   1.0000000
N2   N   0.666878228633199   0.048176266729760   0.110972159235170   1.0000000
N2   N   0.666670977611730   0.190210496328422   0.111038920473632   1.0000000
N2   N   0.666442539185077   0.332107681568494   0.110963591130733   1.0000000
N2   N   0.671242474781921   0.471470571729346   0.110915876658077   1.0000000
N2   N   0.670706872532334   0.624099202803602   0.110760256867411   1.0000000
N2   N   0.669316777224946   0.766299688361695   0.111148888745925   1.0000000
N2   N   0.811033999608344   0.907316642750459   0.110928313811557   1.0000000
N2   N   0.809968566103945   0.048852738585807   0.111003763133444   1.0000000
N2   N   0.809620131984213   0.191015505438709   0.111129998194290   1.0000000
N2   N   0.809518552599691   0.333484304049620   0.111043853497224   1.0000000
N2   N   0.810287233799166   0.476461119137208   0.111012652903945   1.0000000
N2   N   0.811095476040199   0.620867751873136   0.111009666008498   1.0000000
N2   N   0.812068896285374   0.765200381241163   0.111036780650369   1.0000000


