data_1
_audit_creation_method   'vasp2cif'
_cell_length_a    17.52789999999977
_cell_length_b    17.52789999999977
_cell_length_c    15.0
_cell_angle_alpha    90.0
_cell_angle_beta    90.0
_cell_angle_gamma    119.99999999999916

_symmetry_space_group_name_H-M    'P 1'
loop_
_atom_site_label
_atom_site_type_symbol
_atom_site_fract_x
_atom_site_fract_y
_atom_site_fract_z
_atom_site_occupancy
B2   B   0.905604493935673   0.953808322509089   0.111004935322022   1.0000000
B2   B   0.906018492221405   0.096836818938198   0.111079091872617   1.0000000
B2   B   0.905487091952053   0.239195494801761   0.111120394255927   1.0000000
B2   B   0.903425793935903   0.381034797649650   0.110975686275455   1.0000000
B2   B   0.899659923543469   0.522450054320323   0.110957185402010   1.0000000
B2   B   0.900639767123676   0.664715853595353   0.111007081908759   1.0000000
B2   B   0.903285931866555   0.809117928129807   0.111030831212364   1.0000000
B2   B   0.046968059014941   0.951855393580756   0.110985415936236   1.0000000
B2   B   0.049183242645479   0.096591263395845   0.111001254514138   1.0000000
B2   B   0.049997891505319   0.239451473648728   0.111073290974029   1.0000000
B2   B   0.049418753586836   0.381213158649211   0.110990531789126   1.0000000
B2   B   0.046976317057139   0.522685559725775   0.110950199581656   1.0000000
B2   B   0.045324880761277   0.664782372767427   0.110977427481948   1.0000000
B2   B   0.045507003850779   0.807735602932546   0.110985339767218   1.0000000
B2   B   0.189018187855281   0.950447890956413   0.111044222693317   1.0000000
B2   B   0.190367978164602   0.094455890157972   0.111033557221232   1.0000000
B2   B   0.194376527364372   0.239808669168646   0.111052796879500   1.0000000
B2   B   0.195846585056415   0.381434180207394   0.111020018613976   1.0000000
B2   B   0.194259060755871   0.522772288426935   0.110994335079328   1.0000000
B2   B   0.190241959937043   0.664881133912555   0.110996204940176   1.0000000
B2   B   0.189175222775235   0.807561444818674   0.110999233098278   1.0000000
B2   B   0.332408011942076   0.950385000232599   0.111032129444377   1.0000000
B2   B   0.331829391391382   0.092382626640930   0.111088225353489   1.0000000
B2   B   0.334811728577246   0.236750705845656   0.111020960248088   1.0000000
B2   B   0.345040193911087   0.381703547300729   0.111055812232298   1.0000000
B2   B   0.343418826258277   0.523354948156837   0.111065208315908   1.0000000
B2   B   0.334819666113391   0.665146018812120   0.111076581618373   1.0000000
B2   B   0.333076103417843   0.807845252475418   0.111035572449824   1.0000000
B2   B   0.475895669202517   0.951584105813724   0.111007848263566   1.0000000
B2   B   0.475271934227560   0.093932365647187   0.111027642010643   1.0000000
B2   B   0.473318686186249   0.235912345886772   0.110996740419039   1.0000000
B2   B   0.478331370704459   0.666407539583593   0.111107333373361   1.0000000
B2   B   0.476718910568655   0.809029627802188   0.111037043113091   1.0000000
B2   B   0.619327788089581   0.953697525812102   0.110984932522012   1.0000000
B2   B   0.618706887834466   0.096070153475876   0.110988219000586   1.0000000
B2   B   0.616868089567998   0.238729791352079   0.110993209244295   1.0000000
B2   B   0.608688429455750   0.379919551257707   0.111007806795882   1.0000000
B2   B   0.601041611040371   0.526990515869165   0.111094475446922   1.0000000
B2   B   0.620999261060225   0.672108132261175   0.111061233203286   1.0000000
B2   B   0.620003924728821   0.812139701532836   0.111007576540485   1.0000000
B2   B   0.762774479370392   0.954346849768399   0.111008304793974   1.0000000
B2   B   0.762333296772301   0.096683518972599   0.111081495461097   1.0000000
B2   B   0.761038747749145   0.239039566759285   0.111062453869452   1.0000000
B2   B   0.757191288834816   0.380821949644241   0.110973155466172   1.0000000
B2   B   0.750552960221339   0.522158297327666   0.111058131434321   1.0000000
B2   B   0.758459819994953   0.666473279409322   0.111085917000022   1.0000000
B2   B   0.762724555981381   0.811900552423599   0.111035417739535   1.0000000
C2   C   0.496208938406449   0.528460315188232   0.111181490798689   1.0000000
N2   N   0.951642796434807   0.904556223328772   0.110976920455340   1.0000000
N2   N   0.953472569254244   0.049007503474265   0.110993050659831   1.0000000
N2   N   0.953870914893207   0.192016682108984   0.111099156205697   1.0000000
N2   N   0.953083967956786   0.334390383731904   0.111005974668048   1.0000000
N2   N   0.950423829944633   0.476172492322735   0.110925632891252   1.0000000
N2   N   0.949272542906096   0.617762095953609   0.110958922187400   1.0000000
N2   N   0.949849940194730   0.760340675311211   0.110981999820319   1.0000000
N2   N   0.093466870847240   0.902893854200618   0.110985422229566   1.0000000
N2   N   0.094751270026793   0.046948152692183   0.110968276482530   1.0000000
N2   N   0.097528221671188   0.191942471654279   0.111030190257092   1.0000000
N2   N   0.098608040574504   0.334693804315096   0.111012404201661   1.0000000
N2   N   0.097256315094721   0.476335580021614   0.110946433181498   1.0000000
N2   N   0.094350829233319   0.617863779747777   0.110959089666057   1.0000000
N2   N   0.093399693202229   0.760017093904999   0.110968237121160   1.0000000
N2   N   0.236700558924184   0.902469371905183   0.111001227335324   1.0000000
N2   N   0.236241056709566   0.044849882902536   0.111062636621815   1.0000000
N2   N   0.238027638097360   0.188897964485808   0.111018333197020   1.0000000
N2   N   0.244751425275722   0.335602084442029   0.111042887300864   1.0000000
N2   N   0.245146733778302   0.476787445030921   0.110990412174331   1.0000000
N2   N   0.239360360288732   0.617999233256501   0.111011500117158   1.0000000
N2   N   0.237427440379215   0.760090087190089   0.110998808754574   1.0000000
N2   N   0.380398820852111   0.902882342326059   0.111002114055647   1.0000000
N2   N   0.379753905806865   0.044711309453427   0.111047781809472   1.0000000
N2   N   0.378349169673583   0.185268750174357   0.111036757271454   1.0000000
N2   N   0.382586459459457   0.328397692584670   0.110991387187416   1.0000000
N2   N   0.398351159238014   0.479763364165686   0.111079004741214   1.0000000
N2   N   0.383953424321669   0.618586052465375   0.111072514407067   1.0000000
N2   N   0.381379954850093   0.760613495410889   0.111050434531928   1.0000000
N2   N   0.523984286166488   0.904398110847646   0.110983520594907   1.0000000
N2   N   0.523429610180513   0.046544401960061   0.110974410418548   1.0000000
N2   N   0.522260208903144   0.188161853556060   0.110989722685290   1.0000000
N2   N   0.517682409252919   0.327289117347171   0.110941323071552   1.0000000
N2   N   0.527151952961963   0.620279390417786   0.111082255855531   1.0000000
N2   N   0.525086765129477   0.762216003798138   0.111026760071731   1.0000000
N2   N   0.667534865308289   0.906987995075545   0.110968778185043   1.0000000
N2   N   0.666960537578322   0.048782509224167   0.110993256732229   1.0000000
N2   N   0.665956916662339   0.191254270794091   0.110986831785310   1.0000000
N2   N   0.662491952923141   0.334181194614259   0.110964682381378   1.0000000
N2   N   0.652111507670473   0.477033724154850   0.111048662030966   1.0000000
N2   N   0.663362769104888   0.621204810203263   0.111073418691030   1.0000000
N2   N   0.668199456571354   0.766105325664197   0.110996546624042   1.0000000
N2   N   0.810506083533782   0.906876853432909   0.110990299777037   1.0000000
N2   N   0.810486068268114   0.049402520134328   0.111055451318929   1.0000000
N2   N   0.809861517636981   0.191842430499743   0.111111217109128   1.0000000
N2   N   0.807748960852683   0.334281130379423   0.110985286897647   1.0000000
N2   N   0.802966179484232   0.476249892598207   0.110972671165679   1.0000000
N2   N   0.804544850864972   0.617884787872919   0.111048353279905   1.0000000
N2   N   0.808110943507523   0.762288030075522   0.111057531918259   1.0000000


