data_1
_audit_creation_method   'vasp2cif'
_cell_length_a    17.52789999999977
_cell_length_b    17.52789999999977
_cell_length_c    15.0
_cell_angle_alpha    90.0
_cell_angle_beta    90.0
_cell_angle_gamma    119.99999999999916

_symmetry_space_group_name_H-M    'P 1'
loop_
_atom_site_label
_atom_site_type_symbol
_atom_site_fract_x
_atom_site_fract_y
_atom_site_fract_z
_atom_site_occupancy
B2   B   0.905868366167343   0.953152058211672   0.111030650100221   1.0000000
B2   B   0.904754319541307   0.095247427150693   0.111054198875136   1.0000000
B2   B   0.904396077098737   0.237912888049332   0.111046873387409   1.0000000
B2   B   0.904745454790554   0.380930203549211   0.110990468762982   1.0000000
B2   B   0.905860286754192   0.524133230798240   0.111019379081782   1.0000000
B2   B   0.905941886539756   0.667260493814129   0.111080208132230   1.0000000
B2   B   0.905951212773228   0.810110026338478   0.111057299168120   1.0000000
B2   B   0.047831950041991   0.952169773323005   0.110993680521116   1.0000000
B2   B   0.046849657130330   0.094133354304664   0.111030649627219   1.0000000
B2   B   0.046267747679842   0.237045803951457   0.111008769071135   1.0000000
B2   B   0.046253957789611   0.380641631933360   0.111000632187700   1.0000000
B2   B   0.046842844203200   0.524146163164023   0.110994429314502   1.0000000
B2   B   0.047837981927829   0.667100572558646   0.111020689918838   1.0000000
B2   B   0.048032281604857   0.809737498335072   0.110982292972780   1.0000000
B2   B   0.190264251357926   0.951969481488153   0.110982291446782   1.0000000
B2   B   0.189891674697521   0.094050499934779   0.111057295044123   1.0000000
B2   B   0.187344877315268   0.234619723594719   0.111036329998709   1.0000000
B2   B   0.187165561007261   0.379283224144399   0.111020051131739   1.0000000
B2   B   0.187337527621072   0.524126556821692   0.111070498661349   1.0000000
B2   B   0.189884109356189   0.667257462502492   0.111063956382358   1.0000000
B2   B   0.190271473865345   0.809730220675653   0.110988990062619   1.0000000
B2   B   0.332901163146353   0.952163741906175   0.111020692332835   1.0000000
B2   B   0.332741220162870   0.094059853380245   0.111080203755230   1.0000000
B2   B   0.332261456394464   0.235944675601497   0.111059866160513   1.0000000
B2   B   0.326031009112570   0.373684262343431   0.110995624405438   1.0000000
B2   B   0.326027976842315   0.523779882322290   0.111035259728114   1.0000000
B2   B   0.332248012302802   0.667753690471198   0.111078694293396   1.0000000
B2   B   0.332744190817506   0.810117519486805   0.111063959915361   1.0000000
B2   B   0.475855524254979   0.953158736726797   0.110994434625504   1.0000000
B2   B   0.475868510707764   0.094141535921806   0.111019387774782   1.0000000
B2   B   0.475859497957569   0.234636521666701   0.111028850961285   1.0000000
B2   B   0.476216934884613   0.373686656459346   0.111062091043507   1.0000000
B2   B   0.476221902110705   0.673973880497687   0.111035260242121   1.0000000
B2   B   0.475875158968307   0.812664159446927   0.111070504398349   1.0000000
B2   B   0.619360107038650   0.953747726627390   0.111000634294701   1.0000000
B2   B   0.619071466798788   0.095256232491447   0.110990469848983   1.0000000
B2   B   0.619371180021386   0.237056483464544   0.110998794004773   1.0000000
B2   B   0.620695047063016   0.379306687145984   0.111020726162040   1.0000000
B2   B   0.626314912510654   0.523784732318389   0.111062085785505   1.0000000
B2   B   0.626317387111564   0.673970714603426   0.110995624118436   1.0000000
B2   B   0.620718519015601   0.812836208395738   0.111020046783736   1.0000000
B2   B   0.762955936576541   0.953733971847156   0.111008771297130   1.0000000
B2   B   0.762088807711669   0.095605599435260   0.111046875790408   1.0000000
B2   B   0.762090681288536   0.237911023891462   0.111053210331451   1.0000000
B2   B   0.762945338919456   0.380630575409614   0.110998785597773   1.0000000
B2   B   0.765365230509296   0.524142184849441   0.111028842997288   1.0000000
B2   B   0.764056983169501   0.667740224150533   0.111059874788513   1.0000000
B2   B   0.765381947829283   0.812656839366732   0.111036332472705   1.0000000
Ge2   Ge   0.476201386621129   0.523800268925866   0.111015015923551   1.0000000
N2   N   0.952838884055970   0.904994655548311   0.111008437288245   1.0000000
N2   N   0.952352988425454   0.047648728884546   0.111023096379473   1.0000000
N2   N   0.951780077882627   0.190165603110057   0.111027034615922   1.0000000
N2   N   0.951770286274783   0.333039850790001   0.110991969382547   1.0000000
N2   N   0.952347947723991   0.476126568505795   0.110959099413492   1.0000000
N2   N   0.952837304744954   0.619269056142999   0.111032434038331   1.0000000
N2   N   0.952942725846678   0.762185028154994   0.111034450234829   1.0000000
N2   N   0.095319673029509   0.904682079438492   0.110939720278457   1.0000000
N2   N   0.095007049889692   0.047162834759030   0.111008443785242   1.0000000
N2   N   0.093416663753920   0.188868690412221   0.111000897974675   1.0000000
N2   N   0.093309549361118   0.332368603316009   0.110986974427076   1.0000000
N2   N   0.093406915559786   0.475968595033564   0.111005909024130   1.0000000
N2   N   0.095003149832790   0.619273246035781   0.111008409951388   1.0000000
N2   N   0.095322932998974   0.762078239416543   0.110967971560195   1.0000000
N2   N   0.237923472744459   0.904678777759025   0.110967972452197   1.0000000
N2   N   0.237816701222011   0.047059043117319   0.111034442811832   1.0000000
N2   N   0.237310737893108   0.189366038444332   0.111051117400192   1.0000000
N2   N   0.233233956543564   0.329328493863686   0.110998594794441   1.0000000
N2   N   0.233227310440033   0.475313865762796   0.111041011632029   1.0000000
N2   N   0.237298971172646   0.619360341557812   0.111068154414292   1.0000000
N2   N   0.237816414218529   0.762185219976466   0.111033697390191   1.0000000
N2   N   0.380728425067218   0.904998475950211   0.111008414101391   1.0000000
N2   N   0.380732671043998   0.047164446175045   0.111032441786330   1.0000000
N2   N   0.380636521420533   0.189372376382762   0.111054654637649   1.0000000
N2   N   0.380406467410839   0.332247553844748   0.111019937419304   1.0000000
N2   N   0.364421166346519   0.467927911153761   0.110935130266890   1.0000000
N2   N   0.380402138690967   0.619599659268035   0.111038256772787   1.0000000
N2   N   0.380641396931186   0.762702735707353   0.111068159035293   1.0000000
N2   N   0.524033137194436   0.906594679956211   0.111005922802129   1.0000000
N2   N   0.523875089843205   0.047653714036012   0.110959099858498   1.0000000
N2   N   0.524039497407151   0.188881367097550   0.110991568753754   1.0000000
N2   N   0.524666740178383   0.329338146906317   0.111026714194895   1.0000000
N2   N   0.532083677732179   0.467917918892826   0.111043331292899   1.0000000
N2   N   0.532073748129239   0.635580515792482   0.110935131844892   1.0000000
N2   N   0.524687916850209   0.766774545887973   0.111041008816028   1.0000000
N2   N   0.667633187295987   0.906692198111882   0.110986972214076   1.0000000
N2   N   0.666961818940990   0.048231367974221   0.110991967914552   1.0000000
N2   N   0.666964594319004   0.190168517991996   0.111008132044536   1.0000000
N2   N   0.667627102011157   0.332374708537844   0.110984205466676   1.0000000
N2   N   0.670663517225676   0.475334975831615   0.111026693795895   1.0000000
N2   N   0.667754076799252   0.619595227134158   0.111019940054302   1.0000000
N2   N   0.670673172590310   0.766767800924434   0.110998587663442   1.0000000
N2   N   0.811133022103783   0.906585051280084   0.111000898350680   1.0000000
N2   N   0.809836122166946   0.048221631190370   0.111027044302921   1.0000000
N2   N   0.809525242659637   0.190476412032362   0.111049920644559   1.0000000
N2   N   0.809833220116000   0.333037090841998   0.111008126104541   1.0000000
N2   N   0.811120524457452   0.475962257042853   0.110991548242752   1.0000000
N2   N   0.810629344984237   0.619365182626468   0.111054669990652   1.0000000
N2   N   0.810635623649668   0.762690953890899   0.111051128696187   1.0000000


