data_1
_audit_creation_method   'vasp2cif'
_cell_length_a    17.52789999999977
_cell_length_b    17.52789999999977
_cell_length_c    15.0
_cell_angle_alpha    90.0
_cell_angle_beta    90.0
_cell_angle_gamma    119.99999999999916

_symmetry_space_group_name_H-M    'P 1'
loop_
_atom_site_label
_atom_site_type_symbol
_atom_site_fract_x
_atom_site_fract_y
_atom_site_fract_z
_atom_site_occupancy
B2   B   0.904908864881866   0.952627456331473   0.111022517380391   1.0000000
B2   B   0.904690887558619   0.095270863173750   0.111049704931757   1.0000000
B2   B   0.904687364842158   0.238069219127179   0.111058481353871   1.0000000
B2   B   0.904687706698527   0.380859495633378   0.111010364835800   1.0000000
B2   B   0.904902729818813   0.523697874740488   0.111005117753016   1.0000000
B2   B   0.905370700010581   0.666774556656716   0.111078657871530   1.0000000
B2   B   0.905370426630636   0.810027365737415   0.111056732736713   1.0000000
B2   B   0.047734683302080   0.952512769085263   0.111020184538106   1.0000000
B2   B   0.047623420699664   0.095377486760162   0.111020971557173   1.0000000
B2   B   0.047558633005693   0.238127900265513   0.111008482792086   1.0000000
B2   B   0.047547577617835   0.380852238253678   0.111025047698287   1.0000000
B2   B   0.047636919776146   0.523671718176255   0.111016603641625   1.0000000
B2   B   0.047753173482155   0.666661588763914   0.111033907313312   1.0000000
B2   B   0.047893823537037   0.809664358820898   0.111012542411852   1.0000000
B2   B   0.190503733732627   0.952356598168740   0.111011264227690   1.0000000
B2   B   0.190096332391510   0.094900954976898   0.111063348079920   1.0000000
B2   B   0.190528236636042   0.238294475529448   0.111017142262645   1.0000000
B2   B   0.190569444275209   0.380984256280750   0.111022288691646   1.0000000
B2   B   0.190533103853666   0.523649372150951   0.111080137862041   1.0000000
B2   B   0.190107224416101   0.666625185655232   0.111072821857087   1.0000000
B2   B   0.190517047607728   0.809568584140034   0.111010432892649   1.0000000
B2   B   0.333377009728195   0.952388874599972   0.111028125807729   1.0000000
B2   B   0.333294420034709   0.095096326651030   0.111072471763154   1.0000000
B2   B   0.332341866279225   0.237082056482667   0.111071787877093   1.0000000
B2   B   0.334028029477840   0.380944844880291   0.111056598569217   1.0000000
B2   B   0.334043858923891   0.524490568666009   0.111070201321969   1.0000000
B2   B   0.332345273166512   0.666678468169066   0.111093593194813   1.0000000
B2   B   0.333299630495557   0.809616069617737   0.111065940780058   1.0000000
B2   B   0.476280982136807   0.952486596916962   0.111014303822483   1.0000000
B2   B   0.476286047060682   0.095211386263905   0.111011314821013   1.0000000
B2   B   0.476282944797773   0.237993844165490   0.111058710866908   1.0000000
B2   B   0.474502685593579   0.379483565566576   0.111000442755150   1.0000000
B2   B   0.474510955754956   0.666463167172154   0.110940443014042   1.0000000
B2   B   0.476292988900094   0.809728700140151   0.111059893325077   1.0000000
B2   B   0.619094932604554   0.952259891592636   0.111031709679065   1.0000000
B2   B   0.619129892331938   0.095286501144561   0.111011591554516   1.0000000
B2   B   0.619093805026560   0.238272380008904   0.111021244375149   1.0000000
B2   B   0.618776172093081   0.381387168051281   0.111005266459718   1.0000000
B2   B   0.620119848632101   0.525619063227483   0.110966753480291   1.0000000
B2   B   0.620130490774996   0.665962841868250   0.110912626802567   1.0000000
B2   B   0.618786783449370   0.808831736671004   0.110999916133791   1.0000000
B2   B   0.761785855004375   0.952278771130822   0.111018018234409   1.0000000
B2   B   0.761882068115046   0.095227522497193   0.111058916941883   1.0000000
B2   B   0.761880097443337   0.238110990408756   0.111067800839756   1.0000000
B2   B   0.761787050822317   0.380936779664558   0.111021096045832   1.0000000
B2   B   0.762038908946961   0.523730419804734   0.111054315075839   1.0000000
B2   B   0.763635715538001   0.667538440464969   0.111047988841475   1.0000000
B2   B   0.762047603462865   0.809759046001476   0.111017557965048   1.0000000
C2   C   0.475801129380730   0.523611694430923   0.110964769914716   1.0000000
C2   C   0.521323663244164   0.476930780853398   0.110957214156747   1.0000000
C2   C   0.521329605740315   0.615851059598301   0.110704757274393   1.0000000
N2   N   0.952933901480767   0.905325437268571   0.111008582165985   1.0000000
N2   N   0.952531453269736   0.047937770053249   0.111011626988823   1.0000000
N2   N   0.952308064513567   0.190518563608736   0.111032215971922   1.0000000
N2   N   0.952303272994832   0.333230870122339   0.111015746433581   1.0000000
N2   N   0.952538330468071   0.476028671822626   0.110965913318897   1.0000000
N2   N   0.952941179058232   0.619040674344988   0.111021678156500   1.0000000
N2   N   0.953111478318682   0.762271455773799   0.111045979636282   1.0000000
N2   N   0.095425453168853   0.904888573189107   0.110980560960021   1.0000000
N2   N   0.095037850020253   0.047545714102373   0.111022860959900   1.0000000
N2   N   0.095088925263993   0.190534520378254   0.110984167510422   1.0000000
N2   N   0.095027806230724   0.333226474188793   0.110988060620474   1.0000000
N2   N   0.095092464573566   0.475976496234888   0.111024522904491   1.0000000
N2   N   0.095048120349886   0.618922088243269   0.111027643816029   1.0000000
N2   N   0.095434227051342   0.761971247456935   0.110995544346740   1.0000000
N2   N   0.238089946735020   0.904752192160325   0.110988828131198   1.0000000
N2   N   0.237878828529153   0.047343978845445   0.111044628723378   1.0000000
N2   N   0.237067346775133   0.189582099189702   0.111040063384999   1.0000000
N2   N   0.238015651352653   0.333442288304551   0.111014545317724   1.0000000
N2   N   0.238025401534031   0.475980919973401   0.111051413410610   1.0000000
N2   N   0.237066779300956   0.618903400754155   0.111075852336847   1.0000000
N2   N   0.237887758091351   0.761956831807568   0.111034193438350   1.0000000
N2   N   0.380907660158713   0.904915433731463   0.111019160784798   1.0000000
N2   N   0.380906662720863   0.047403714513820   0.111026157937774   1.0000000
N2   N   0.380521833467648   0.189727086480076   0.111066653809119   1.0000000
N2   N   0.378739696425485   0.330941382215388   0.111026386962341   1.0000000
N2   N   0.381935244387873   0.476666328083192   0.111034692853012   1.0000000
N2   N   0.378740755867277   0.619213912661221   0.111042603924141   1.0000000
N2   N   0.380528309945893   0.762219189830936   0.111061124860549   1.0000000
N2   N   0.523834350174257   0.905236991070913   0.111022587579254   1.0000000
N2   N   0.523901182179787   0.047660784754655   0.110969979980263   1.0000000
N2   N   0.523829635183584   0.190024007767282   0.111015437168601   1.0000000
N2   N   0.523449190325010   0.332099608139739   0.110993098542279   1.0000000
N2   N   0.523457932265879   0.762792408685271   0.110997274131188   1.0000000
N2   N   0.666773501918280   0.904972072578159   0.110997935971011   1.0000000
N2   N   0.666775476045081   0.047762963176351   0.111016813185746   1.0000000
N2   N   0.666773437990561   0.190457345937544   0.111025890216036   1.0000000
N2   N   0.666769863073626   0.333237523407121   0.111002149228632   1.0000000
N2   N   0.667702330856425   0.476385273393323   0.110984600562187   1.0000000
N2   N   0.670250386356510   0.620849966409703   0.110983893958961   1.0000000
N2   N   0.667716647820914   0.762770875964888   0.110983179675351   1.0000000
N2   N   0.810101865149336   0.905439677360580   0.110999863842201   1.0000000
N2   N   0.809607235021495   0.047824229813239   0.111031493558568   1.0000000
N2   N   0.809551801634185   0.190504100804540   0.111053948210966   1.0000000
N2   N   0.809607850335142   0.333229841231478   0.111026237355264   1.0000000
N2   N   0.810097802519353   0.476099240980172   0.111015729521438   1.0000000
N2   N   0.810997132164675   0.619384731313017   0.111057099510347   1.0000000
N2   N   0.810999493494094   0.763051033028496   0.111029253745710   1.0000000


