data_1
_audit_creation_method   'vasp2cif'
_cell_length_a    14.93631414619966
_cell_length_b    14.936314146199727
_cell_length_c    13.341276283792837
_cell_angle_alpha    90.0
_cell_angle_beta    90.0
_cell_angle_gamma    119.99999999999984

_symmetry_space_group_name_H-M    'P 1'
loop_
_atom_site_label
_atom_site_type_symbol
_atom_site_fract_x
_atom_site_fract_y
_atom_site_fract_z
_atom_site_occupancy
C2   C   0.609411366789071   0.388223347324908   0.375000000000000   1.0000000
C2   C   0.445478647202508   0.388223347324908   0.375000000000000   1.0000000
C2   C   0.553103608586453   0.439540550506236   0.375000000000000   1.0000000
N2   N   0.111100380385844   0.055549241360269   0.125030500794529   1.0000000
N2   N   0.611097506741824   0.555528346816977   0.124889455358184   1.0000000
N2   N   0.444450312725377   0.055563293600366   0.125047416399514   1.0000000
N2   N   0.944434907525897   0.555547248980148   0.125014274759562   1.0000000
N2   N   0.777776214684335   0.055543113206914   0.125005997259379   1.0000000
N2   N   0.111107702688726   0.722218461314341   0.624991687797683   1.0000000
N2   N   0.444444285666000   0.722213801606047   0.624979575981649   1.0000000
N2   N   0.277747125044660   0.222214105698898   0.624948419593036   1.0000000
N2   N   0.777767477193597   0.722207376970195   0.624973095586400   1.0000000
N2   N   0.611133647320908   0.222214105698898   0.624948419593036   1.0000000
N2   N   0.944440355074837   0.222214043483009   0.624981994466719   1.0000000
N2   N   0.277777425292286   0.722218461314341   0.125008312202317   1.0000000
N2   N   0.111082505882748   0.222206575386745   0.125005901595476   1.0000000
N2   N   0.444448972975767   0.222231279284869   0.125186820211792   1.0000000
N2   N   0.611106566443269   0.722207376970195   0.125026904413600   1.0000000
N2   N   0.944436182606712   0.722213801606047   0.125020424018351   1.0000000
N2   N   0.777790736170668   0.222206575386745   0.125005901595476   1.0000000
N2   N   0.111110701081964   0.888889911058530   0.624980771067161   1.0000000
N2   N   0.444445876643238   0.888889911058530   0.624980771067161   1.0000000
N2   N   0.277764373050064   0.388867949250286   0.624924298290973   1.0000000
N2   N   0.611114114904855   0.388851130261177   0.625456385770637   1.0000000
N2   N   0.777774292359689   0.888881918052707   0.624980532692224   1.0000000
N2   N   0.944443519711538   0.388885811611760   0.624970637310124   1.0000000
N2   N   0.111108958566893   0.388885811611760   0.125029362689876   1.0000000
N2   N   0.277779735139960   0.888892803613249   0.125023584396211   1.0000000
N2   N   0.611108445426001   0.888884203782300   0.125017881369360   1.0000000
N2   N   0.444403682022993   0.388851130261177   0.124543614229363   1.0000000
N2   N   0.944442425022970   0.888884203782300   0.125017881369360   1.0000000
N2   N   0.777770242866894   0.388867949250286   0.125075701709027   1.0000000
N2   N   0.277779008120916   0.555547248980148   0.624985725240438   1.0000000
N2   N   0.111100380385844   0.055549241360269   0.624969499205471   1.0000000
N2   N   0.611097506741824   0.555528346816977   0.625110544641816   1.0000000
N2   N   0.444450312725377   0.055563293600366   0.624952583600486   1.0000000
N2   N   0.944434907525897   0.555547248980148   0.624985725240438   1.0000000
N2   N   0.111108985166199   0.555551303665727   0.125013303575179   1.0000000
N2   N   0.777776214684335   0.055543113206914   0.624994002740621   1.0000000
N2   N   0.277779647541653   0.055563293600366   0.125047416399514   1.0000000
N2   N   0.444448735725625   0.555539904996240   0.125036335427442   1.0000000
N2   N   0.777757835937278   0.555539904996240   0.125036335427442   1.0000000
N2   N   0.611115527641096   0.055549241360269   0.125030500794529   1.0000000
N2   N   0.444448735725625   0.555539904996240   0.624963664572557   1.0000000
N2   N   0.944433565189242   0.055543113206914   0.125005997259379   1.0000000
N2   N   0.277777425292286   0.722218461314341   0.624991687797683   1.0000000
N2   N   0.111082505882748   0.222206575386745   0.624994098404523   1.0000000
N2   N   0.444448972975767   0.222231279284869   0.624813179788208   1.0000000
N2   N   0.611106566443269   0.722207376970195   0.624973095586400   1.0000000
N2   N   0.944436182606712   0.722213801606047   0.624979575981649   1.0000000
N2   N   0.777790736170668   0.222206575386745   0.624994098404523   1.0000000
N2   N   0.111107702688726   0.722218461314341   0.125008312202317   1.0000000
N2   N   0.444444285666000   0.722213801606047   0.125020424018351   1.0000000
N2   N   0.277747125044660   0.222214105698898   0.125051580406964   1.0000000
N2   N   0.777767477193597   0.722207376970195   0.125026904413600   1.0000000
N2   N   0.611133647320908   0.222214105698898   0.125051580406964   1.0000000
N2   N   0.944440355074837   0.222214043483009   0.125018005533281   1.0000000
N2   N   0.111108958566893   0.388885811611760   0.624970637310124   1.0000000
N2   N   0.277779735139960   0.888892803613249   0.624976415603789   1.0000000
N2   N   0.611108445426001   0.888884203782300   0.624982118630640   1.0000000
N2   N   0.444403682022993   0.388851130261177   0.625456385770637   1.0000000
N2   N   0.944442425022970   0.888884203782300   0.624982118630640   1.0000000
N2   N   0.111110701081964   0.888889911058530   0.125019228932838   1.0000000
N2   N   0.777770242866894   0.388867949250286   0.624924298290973   1.0000000
N2   N   0.444445876643238   0.888889911058530   0.125019228932838   1.0000000
N2   N   0.277764373050064   0.388867949250286   0.125075701709027   1.0000000
N2   N   0.277779008120916   0.555547248980148   0.125014274759562   1.0000000
N2   N   0.611114114904855   0.388851130261177   0.124543614229363   1.0000000
N2   N   0.777774292359689   0.888881918052707   0.125019467307775   1.0000000
N2   N   0.944443519711538   0.388885811611760   0.125029362689876   1.0000000
N2   N   0.111108985166199   0.555551303665727   0.624986696424821   1.0000000
N2   N   0.277779647541653   0.055563293600366   0.624952583600486   1.0000000
N2   N   0.777757835937278   0.555539904996240   0.624963664572557   1.0000000
N2   N   0.611115527641096   0.055549241360269   0.624969499205471   1.0000000
N2   N   0.944433565189242   0.055543113206914   0.624994002740621   1.0000000
N2   N   0.055678643832528   0.111187473098358   0.375000000000000   1.0000000
N2   N   0.555895697150516   0.611685658204876   0.375000000000000   1.0000000
N2   N   0.389864147157870   0.113061627649084   0.375000000000000   1.0000000
N2   N   0.887544674106742   0.609964083210849   0.375000000000000   1.0000000
N2   N   0.722175495932495   0.111187473098358   0.375000000000000   1.0000000
N2   N   0.055556701226732   0.777779584543692   0.875000000000000   1.0000000
N2   N   0.388889549983625   0.777779584543692   0.875000000000000   1.0000000
N2   N   0.222222221957094   0.277778972827571   0.875000000000000   1.0000000
N2   N   0.722222534490133   0.777778402313601   0.875000000000000   1.0000000
N2   N   0.555555045726966   0.277776186036184   0.875000000000000   1.0000000
N2   N   0.888890616211380   0.277781104997321   0.875000000000000   1.0000000
N2   N   0.222259095515683   0.777851524364701   0.375000000000000   1.0000000
N2   N   0.055660443842806   0.277887578327333   0.375000000000000   1.0000000
N2   N   0.389111940253332   0.279773862238640   0.375000000000000   1.0000000
N2   N   0.555508691529565   0.777976739990963   0.375000000000000   1.0000000
N2   N   0.889134715128062   0.777976739990963   0.375000000000000   1.0000000
N2   N   0.722243225551253   0.277609457084861   0.375000000000000   1.0000000
N2   N   0.055556688821999   0.944445614863938   0.875000000000000   1.0000000
N2   N   0.388889855642608   0.944444924733411   0.875000000000000   1.0000000
N2   N   0.222222639817132   0.444447424611356   0.875000000000000   1.0000000
N2   N   0.555557208046215   0.444447749425758   0.875000000000000   1.0000000
N2   N   0.722221176398883   0.944444753395353   0.875000000000000   1.0000000
N2   N   0.888891451460888   0.444447424611356   0.875000000000000   1.0000000
N2   N   0.055525669752209   0.444384672837747   0.375000000000000   1.0000000
N2   N   0.222615700691081   0.944992528680896   0.375000000000000   1.0000000
N2   N   0.555492869286827   0.944771477568053   0.375000000000000   1.0000000
N2   N   0.390567547935356   0.442132326438244   0.375000000000000   1.0000000
N2   N   0.889034294541241   0.944561539132866   0.375000000000000   1.0000000
N2   N   0.718231445169552   0.442132326438244   0.375000000000000   1.0000000
N2   N   0.222221169732153   0.611111131507186   0.875000000000000   1.0000000
N2   N   0.055556169674157   0.111109723869033   0.875000000000000   1.0000000
N2   N   0.555555905175792   0.611112148776628   0.875000000000000   1.0000000
N2   N   0.388888000058523   0.111109333450388   0.875000000000000   1.0000000
N2   N   0.888890402819354   0.611111947072044   0.875000000000000   1.0000000
N2   N   0.055259434790119   0.610927480545515   0.375000000000000   1.0000000
N2   N   0.722220220861540   0.111109723869033   0.875000000000000   1.0000000
N2   N   0.222909619758900   0.111799870999136   0.375000000000000   1.0000000
N2   N   0.389086075770764   0.609964083210849   0.375000000000000   1.0000000
N2   N   0.722456627721024   0.611685658204876   0.375000000000000   1.0000000
N2   N   0.555556917906900   0.111799870999136   0.375000000000000   1.0000000
N2   N   0.388888210919347   0.611111947072044   0.875000000000000   1.0000000
N2   N   0.888949713685999   0.111232760705339   0.375000000000000   1.0000000
N2   N   0.222222622837295   0.777778579007926   0.875000000000000   1.0000000
N2   N   0.055557155452605   0.277781104997321   0.875000000000000   1.0000000
N2   N   0.388887806975882   0.277776186036184   0.875000000000000   1.0000000
N2   N   0.555555507369744   0.777779558856278   0.875000000000000   1.0000000
N2   N   0.888890718153198   0.777779558856278   0.875000000000000   1.0000000
N2   N   0.722223417537141   0.277778972827571   0.875000000000000   1.0000000
N2   N   0.055291615872695   0.777548793799016   0.375000000000000   1.0000000
N2   N   0.388923844592985   0.777548793799016   0.375000000000000   1.0000000
N2   N   0.222032898200272   0.277609457084861   0.375000000000000   1.0000000
N2   N   0.722350552686190   0.778034438705714   0.375000000000000   1.0000000
N2   N   0.557328588651973   0.279773862238640   0.375000000000000   1.0000000
N2   N   0.888893801151191   0.277887578327333   0.375000000000000   1.0000000
N2   N   0.055557135718898   0.444447604771124   0.875000000000000   1.0000000
N2   N   0.222221735757468   0.944444924733411   0.875000000000000   1.0000000
N2   N   0.555555592708610   0.944445614863938   0.875000000000000   1.0000000
N2   N   0.388888947481432   0.444447936946128   0.875000000000000   1.0000000
N2   N   0.888890243663135   0.944444753395353   0.875000000000000   1.0000000
N2   N   0.055945274947898   0.944771477568053   0.375000000000000   1.0000000
N2   N   0.722225656131360   0.444447936946128   0.875000000000000   1.0000000
N2   N   0.389043494656479   0.944992528680896   0.375000000000000   1.0000000
N2   N   0.223222932510392   0.444283295788316   0.375000000000000   1.0000000
N2   N   0.222334712422060   0.610927480545515   0.375000000000000   1.0000000
N2   N   0.722193911258290   0.944561539132866   0.375000000000000   1.0000000
N2   N   0.887727029944588   0.444283295788316   0.375000000000000   1.0000000
N2   N   0.055556628441697   0.611111131507186   0.875000000000000   1.0000000
N2   N   0.222220973807781   0.111108812061176   0.875000000000000   1.0000000
N2   N   0.722222910267500   0.611112148776628   0.875000000000000   1.0000000
N2   N   0.555554504920059   0.111108812061176   0.875000000000000   1.0000000
N2   N   0.888888713973599   0.111110761280541   0.875000000000000   1.0000000
B2   B   0.111542923985987   0.055942978338726   0.375000000000000   1.0000000
B2   B   0.611794295941554   0.556921925216436   0.375000000000000   1.0000000
B2   B   0.444633667435869   0.056327285858614   0.375000000000000   1.0000000
B2   B   0.943912422458139   0.555328105804312   0.375000000000000   1.0000000
B2   B   0.777785732156935   0.055660856952456   0.375000000000000   1.0000000
B2   B   0.111109047274699   0.722220609209632   0.875000000000000   1.0000000
B2   B   0.444444418647231   0.722216716952601   0.875000000000000   1.0000000
B2   B   0.277791505378014   0.222232880776894   0.875000000000000   1.0000000
B2   B   0.777769657905175   0.722209235958222   0.875000000000000   1.0000000
B2   B   0.611108042065552   0.222232880776894   0.875000000000000   1.0000000
B2   B   0.944446469158538   0.222226271650412   0.875000000000000   1.0000000
B2   B   0.277787747851636   0.722120894809972   0.375000000000000   1.0000000
B2   B   0.111053632998073   0.222229442343590   0.375000000000000   1.0000000
B2   B   0.445526782136050   0.224386897605435   0.375000000000000   1.0000000
B2   B   0.611224901881609   0.722733568383042   0.375000000000000   1.0000000
B2   B   0.943848084149789   0.721561334153716   0.375000000000000   1.0000000
B2   B   0.777842476012189   0.222229442343590   0.375000000000000   1.0000000
B2   B   0.111110117910051   0.888888302663163   0.875000000000000   1.0000000
B2   B   0.444444851419783   0.888888302663163   0.875000000000000   1.0000000
B2   B   0.277792288051849   0.388896426863499   0.875000000000000   1.0000000
B2   B   0.611106439454105   0.388899069423377   0.875000000000000   1.0000000
B2   B   0.777774350188788   0.888882033710904   0.875000000000000   1.0000000
B2   B   0.944443973693455   0.388894174949580   0.875000000000000   1.0000000
B2   B   0.111592903912685   0.388971907459000   0.375000000000000   1.0000000
B2   B   0.277887515855358   0.889108365044045   0.375000000000000   1.0000000
B2   B   0.611040542175176   0.889127919829660   0.375000000000000   1.0000000
B2   B   0.944754044321155   0.889127919829660   0.375000000000000   1.0000000
B2   B   0.776254353493248   0.388370989765976   0.375000000000000   1.0000000
B2   B   0.277783193814499   0.555556675633207   0.875000000000000   1.0000000
B2   B   0.111114780509718   0.055557669633693   0.875000000000000   1.0000000
B2   B   0.611103745818907   0.555540824971142   0.875000000000000   1.0000000
B2   B   0.444445736155991   0.055560586289399   0.875000000000000   1.0000000
B2   B   0.944440148485372   0.555556675633207   0.875000000000000   1.0000000
B2   B   0.111089366370408   0.555512066074145   0.375000000000000   1.0000000
B2   B   0.777776090971417   0.055555196818526   0.875000000000000   1.0000000
B2   B   0.278360285089409   0.056327285858614   0.375000000000000   1.0000000
B2   B   0.445192336313634   0.554371488733436   0.375000000000000   1.0000000
B2   B   0.775845819086466   0.554371488733436   0.375000000000000   1.0000000
B2   B   0.611066721019411   0.055942978338726   0.375000000000000   1.0000000
B2   B   0.444449633992292   0.555550168951323   0.875000000000000   1.0000000
B2   B   0.944541791462185   0.055660856952456   0.375000000000000   1.0000000
B2   B   0.277778228601604   0.722220609209632   0.875000000000000   1.0000000
B2   B   0.111119670841181   0.222227920531719   0.875000000000000   1.0000000
B2   B   0.444451902378795   0.222237138090926   0.875000000000000   1.0000000
B2   B   0.611106244719718   0.722209235958222   0.875000000000000   1.0000000
B2   B   0.944438964972033   0.722216716952601   0.875000000000000   1.0000000
B2   B   0.777774916357210   0.222227920531719   0.875000000000000   1.0000000
B2   B   0.110999813625007   0.722120894809972   0.375000000000000   1.0000000
B2   B   0.444379916670591   0.721561334153716   0.375000000000000   1.0000000
B2   B   0.277943712537644   0.222852780983944   0.375000000000000   1.0000000
B2   B   0.778175333168103   0.722733568383042   0.375000000000000   1.0000000
B2   B   0.611575735112971   0.222852780983944   0.375000000000000   1.0000000
B2   B   0.944517730226441   0.222368793786218   0.375000000000000   1.0000000
B2   B   0.111116867922796   0.388894174949580   0.875000000000000   1.0000000
B2   B   0.277778131885145   0.888889597103618   0.875000000000000   1.0000000
B2   B   0.611108886508365   0.888884539925784   0.875000000000000   1.0000000
B2   B   0.444459296635943   0.388899069423377   0.875000000000000   1.0000000
B2   B   0.944442320084090   0.888884539925784   0.875000000000000   1.0000000
B2   B   0.111224247254776   0.888950353469706   0.375000000000000   1.0000000
B2   B   0.777770805478321   0.388896426863499   0.875000000000000   1.0000000
B2   B   0.444392772881602   0.888950353469706   0.375000000000000   1.0000000
B2   B   0.278783302939399   0.388370989765976   0.375000000000000   1.0000000
B2   B   0.278082350012837   0.555328105804312   0.375000000000000   1.0000000
B2   B   0.777885939993034   0.889105213319397   0.375000000000000   1.0000000
B2   B   0.944045670212986   0.388971907459000   0.375000000000000   1.0000000
B2   B   0.111111933620659   0.555557200574646   0.875000000000000   1.0000000
B2   B   0.277781516800072   0.055560586289399   0.875000000000000   1.0000000
B2   B   0.777767201625696   0.555550168951323   0.875000000000000   1.0000000
B2   B   0.611109555790647   0.055557669633693   0.875000000000000   1.0000000
B2   B   0.944445772513773   0.055555196818526   0.875000000000000   1.0000000
B2   B   0.055542919688881   0.111108074166968   0.124992212038087   1.0000000
B2   B   0.555560839032432   0.611046559748002   0.124995312187694   1.0000000
B2   B   0.388910753184795   0.111154839702933   0.125026888374539   1.0000000
B2   B   0.888839264187018   0.611080487302378   0.125020095053737   1.0000000
B2   B   0.722231821144752   0.111108074166968   0.124992212038087   1.0000000
B2   B   0.055541012704963   0.777766052879939   0.625000388802419   1.0000000
B2   B   0.388891706841640   0.777766052879939   0.625000388802419   1.0000000
B2   B   0.222213645079258   0.277775739696165   0.625003047535905   1.0000000
B2   B   0.722209340391607   0.777752014116550   0.625000137012501   1.0000000
B2   B   0.555603160167256   0.277857364649358   0.625041314781761   1.0000000
B2   B   0.888889005087959   0.277771441923364   0.625004015446692   1.0000000
B2   B   0.222218108399274   0.777769550131883   0.124997441273508   1.0000000
B2   B   0.055549103502070   0.277771441923364   0.124995984553308   1.0000000
B2   B   0.388920871148766   0.277857364649358   0.124958685218239   1.0000000
B2   B   0.555557805552014   0.777755206218619   0.124999662436722   1.0000000
B2   B   0.888864067333268   0.777755206218619   0.124999662436722   1.0000000
B2   B   0.722228761283572   0.277775739696165   0.124996952464094   1.0000000
B2   B   0.055546090731828   0.944439490649790   0.625002670868250   1.0000000
B2   B   0.388894679320042   0.944449906606703   0.625004755703952   1.0000000
B2   B   0.222233783764604   0.444432727637952   0.624984194953832   1.0000000
B2   B   0.555517151751925   0.444367636837179   0.624856840631473   1.0000000
B2   B   0.722220201879373   0.944433875752925   0.625003268257706   1.0000000
B2   B   0.888865610540013   0.444432727637952   0.624984194953832   1.0000000
B2   B   0.055553706499628   0.444440746332585   0.124999803476189   1.0000000
B2   B   0.222221893953326   0.944449906606703   0.124995244296048   1.0000000
B2   B   0.555560066584633   0.944439490649790   0.124997329131750   1.0000000
B2   B   0.388935856224708   0.444396028156584   0.124954943754635   1.0000000
B2   B   0.888880340540216   0.944433875752925   0.124996731742294   1.0000000
B2   B   0.722126838598540   0.444396028156584   0.124954943754635   1.0000000
B2   B   0.222225703938383   0.611099507651138   0.625001497711195   1.0000000
B2   B   0.055542919688881   0.111108074166968   0.625007787961913   1.0000000
B2   B   0.555560839032432   0.611046559748002   0.625004687812305   1.0000000
B2   B   0.388910753184795   0.111154839702933   0.624973111625461   1.0000000
B2   B   0.888839264187018   0.611080487302378   0.624979904946263   1.0000000
B2   B   0.055540470379419   0.611099507651138   0.124998502288805   1.0000000
B2   B   0.722231821144752   0.111108074166968   0.625007787961913   1.0000000
B2   B   0.222218590158670   0.111129536185175   0.125004372039749   1.0000000
B2   B   0.388907889782017   0.611080487302378   0.125020095053737   1.0000000
B2   B   0.722152387382234   0.611046559748002   0.124995312187694   1.0000000
B2   B   0.555577612693169   0.111129536185175   0.125004372039749   1.0000000
B2   B   0.388907889782017   0.611080487302378   0.624979904946263   1.0000000
B2   B   0.888885671465405   0.111104676264153   0.124994273293218   1.0000000
B2   B   0.222218108399274   0.777769550131883   0.625002558726492   1.0000000
B2   B   0.055549103502070   0.277771441923364   0.625004015446692   1.0000000
B2   B   0.388920871148766   0.277857364649358   0.625041314781761   1.0000000
B2   B   0.555557805552014   0.777755206218619   0.625000337563278   1.0000000
B2   B   0.888864067333268   0.777755206218619   0.625000337563278   1.0000000
B2   B   0.722228761283572   0.277775739696165   0.625003047535905   1.0000000
B2   B   0.055541012704963   0.777766052879939   0.124999611197581   1.0000000
B2   B   0.388891706841640   0.777766052879939   0.124999611197581   1.0000000
B2   B   0.222213645079258   0.277775739696165   0.124996952464094   1.0000000
B2   B   0.722209340391607   0.777752014116550   0.124999862987499   1.0000000
B2   B   0.555603160167256   0.277857364649358   0.124958685218239   1.0000000
B2   B   0.888889005087959   0.277771441923364   0.124995984553308   1.0000000
B2   B   0.055553706499628   0.444440746332585   0.625000196523811   1.0000000
B2   B   0.222221893953326   0.944449906606703   0.625004755703952   1.0000000
B2   B   0.555560066584633   0.944439490649790   0.625002670868250   1.0000000
B2   B   0.388935856224708   0.444396028156584   0.625045056245364   1.0000000
B2   B   0.888880340540216   0.944433875752925   0.625003268257706   1.0000000
B2   B   0.055546090731828   0.944439490649790   0.124997329131750   1.0000000
B2   B   0.722126838598540   0.444396028156584   0.625045056245364   1.0000000
B2   B   0.388894679320042   0.944449906606703   0.124995244296048   1.0000000
B2   B   0.222233783764604   0.444432727637952   0.125015805046168   1.0000000
B2   B   0.222225703938383   0.611099507651138   0.124998502288805   1.0000000
B2   B   0.555517151751925   0.444367636837179   0.125143159368527   1.0000000
B2   B   0.722220201879373   0.944433875752925   0.124996731742294   1.0000000
B2   B   0.888865610540013   0.444432727637952   0.125015805046168   1.0000000
B2   B   0.055540470379419   0.611099507651138   0.625001497711195   1.0000000
B2   B   0.222218590158670   0.111129536185175   0.624995627960251   1.0000000
B2   B   0.722152387382234   0.611046559748002   0.625004687812305   1.0000000
B2   B   0.555577612693169   0.111129536185175   0.624995627960251   1.0000000
B2   B   0.888885671465405   0.111104676264153   0.625005726706782   1.0000000


