data_1
_audit_creation_method   'vasp2cif'
_cell_length_a    17.52789999999977
_cell_length_b    17.52789999999977
_cell_length_c    15.0
_cell_angle_alpha    90.0
_cell_angle_beta    90.0
_cell_angle_gamma    119.99999999999916

_symmetry_space_group_name_H-M    'P 1'
loop_
_atom_site_label
_atom_site_type_symbol
_atom_site_fract_x
_atom_site_fract_y
_atom_site_fract_z
_atom_site_occupancy
B2   B   0.905122558673347   0.953749304262683   0.110937866625591   1.0000000
B2   B   0.906464377342898   0.097534978704956   0.110987722458522   1.0000000
B2   B   0.906445135096382   0.240179454733609   0.111070504765295   1.0000000
B2   B   0.905515709497332   0.382253260720339   0.111044145507766   1.0000000
B2   B   0.902840061346547   0.523609887763491   0.110982943180910   1.0000000
B2   B   0.898353573962893   0.664689516096243   0.110971749622107   1.0000000
B2   B   0.901522411966089   0.808578500305223   0.110998096926344   1.0000000
B2   B   0.046194982310921   0.951180558728825   0.110939015465120   1.0000000
B2   B   0.047989319828409   0.095386186965619   0.110952702577392   1.0000000
B2   B   0.049457379551898   0.239494519345625   0.111022753397008   1.0000000
B2   B   0.049704374620908   0.382351165791766   0.111021331439368   1.0000000
B2   B   0.048324534106133   0.524146528423811   0.110997740365103   1.0000000
B2   B   0.045520280701106   0.665424685983087   0.110959294929100   1.0000000
B2   B   0.044590821836797   0.807362911144031   0.110951702149750   1.0000000
B2   B   0.188611910245307   0.949882058190078   0.111028959749272   1.0000000
B2   B   0.189693403587112   0.093445839330285   0.111048140882317   1.0000000
B2   B   0.190740403616850   0.236948446685547   0.110982423186609   1.0000000
B2   B   0.193419741822890   0.381837405773651   0.110957582355129   1.0000000
B2   B   0.193430502682108   0.524549438413363   0.110962431658874   1.0000000
B2   B   0.191890607221201   0.665956137048478   0.110993726333848   1.0000000
B2   B   0.189242626803280   0.807637486374143   0.110978060931618   1.0000000
B2   B   0.332520401235444   0.950435175233046   0.111004864473884   1.0000000
B2   B   0.331703227907623   0.091928894281579   0.111097285504464   1.0000000
B2   B   0.332922357581170   0.234540893678779   0.111131433816343   1.0000000
B2   B   0.333962245756059   0.377610624723128   0.111113043224691   1.0000000
B2   B   0.338335516486913   0.525996010861334   0.111018719931926   1.0000000
B2   B   0.339006951106401   0.666814232075907   0.111022899716562   1.0000000
B2   B   0.333914920891653   0.808507651734513   0.111004503693317   1.0000000
B2   B   0.476582854353589   0.952654512592939   0.110935983894541   1.0000000
B2   B   0.475761667310807   0.094519224363642   0.111004169980828   1.0000000
B2   B   0.474213895903052   0.235224114579877   0.111131085879081   1.0000000
B2   B   0.490657839723527   0.670130033041505   0.111104115033266   1.0000000
B2   B   0.478064516569577   0.810669537255834   0.111003521518291   1.0000000
B2   B   0.620413612573505   0.955767956690352   0.110891628704288   1.0000000
B2   B   0.619670792174474   0.096748527937510   0.110906890450409   1.0000000
B2   B   0.619304999325429   0.238396114242489   0.111025191242151   1.0000000
B2   B   0.620931505215463   0.383468273513637   0.111080869908133   1.0000000
B2   B   0.615684411749898   0.673842430951169   0.111111485693207   1.0000000
B2   B   0.622053711156733   0.816222695159888   0.110983022960570   1.0000000
B2   B   0.763919251740466   0.956082606260618   0.110916013197310   1.0000000
B2   B   0.763432649989015   0.097954726715401   0.110932850859899   1.0000000
B2   B   0.762825461552009   0.239879183636481   0.111025877193566   1.0000000
B2   B   0.761270296229541   0.381838926484299   0.111034255241500   1.0000000
B2   B   0.754629821172030   0.521752144559578   0.110985986601044   1.0000000
B2   B   0.750276161089781   0.664584953780999   0.111095854769465   1.0000000
B2   B   0.761912660380415   0.812348648589046   0.111021660045183   1.0000000
C2   C   0.476446674939090   0.375892909092608   0.111399763918527   1.0000000
C2   C   0.468631315875133   0.504403563844826   0.111600453633093   1.0000000
C2   C   0.513395617864270   0.466668070510629   0.111730853945182   1.0000000
N2   N   0.951624549593596   0.905066696159104   0.110921984019753   1.0000000
N2   N   0.953493571529013   0.049354317776158   0.110927898286529   1.0000000
N2   N   0.954486602589233   0.192756476599491   0.111034283892848   1.0000000
N2   N   0.954409027125484   0.335135382817093   0.111048534325473   1.0000000
N2   N   0.953127173192511   0.477086838577759   0.110992417674887   1.0000000
N2   N   0.950227272255266   0.618881701274292   0.110941967273207   1.0000000
N2   N   0.949724478952029   0.761029809768666   0.110957263090710   1.0000000
N2   N   0.093692682120900   0.903227307370859   0.110950813627876   1.0000000
N2   N   0.094956381302616   0.047039709972482   0.110941830613808   1.0000000
N2   N   0.096188458350568   0.190788088101192   0.110962154250766   1.0000000
N2   N   0.098035747952292   0.334844129310290   0.110984875781450   1.0000000
N2   N   0.097777615271398   0.477372970427899   0.110973508922825   1.0000000
N2   N   0.096041712834176   0.619125088850396   0.110966222709893   1.0000000
N2   N   0.094013842886175   0.760805170219927   0.110934470220676   1.0000000
N2   N   0.237162404608133   0.903026290657160   0.110992726603907   1.0000000
N2   N   0.236786155398223   0.045373408769246   0.111073115481951   1.0000000
N2   N   0.238187560409043   0.189140552000774   0.111032571153071   1.0000000
N2   N   0.239434816604869   0.331969518931960   0.110949559923196   1.0000000
N2   N   0.242335478125916   0.477416878729060   0.110915371050492   1.0000000
N2   N   0.242092110379913   0.619478650917877   0.110980342808287   1.0000000
N2   N   0.238526542285451   0.761068856942794   0.110979959951082   1.0000000
N2   N   0.381009759841320   0.903848148523813   0.110963075487070   1.0000000
N2   N   0.380125049332503   0.045668840410510   0.111019361242810   1.0000000
N2   N   0.379377049645123   0.187011758159738   0.111128821518706   1.0000000
N2   N   0.383363552533187   0.330497325420941   0.111196661759994   1.0000000
N2   N   0.381027119003551   0.472810712629171   0.111155530650137   1.0000000
N2   N   0.390519183246778   0.620744896167807   0.111021463186380   1.0000000
N2   N   0.382832557669684   0.761888770464238   0.111015033633661   1.0000000
N2   N   0.524853926049526   0.906277849030756   0.110909922839822   1.0000000
N2   N   0.523944487034835   0.047862862277789   0.110904372875128   1.0000000
N2   N   0.522942322660959   0.189470857925516   0.111029392178125   1.0000000
N2   N   0.519684268081639   0.330412028163421   0.111201194053363   1.0000000
N2   N   0.526680836677235   0.764842444818929   0.111018897428756   1.0000000
N2   N   0.669013213126988   0.910558478907366   0.110892974118317   1.0000000
N2   N   0.667996190815814   0.050478460177655   0.110857178251335   1.0000000
N2   N   0.667216792187571   0.191181101756916   0.110954207147269   1.0000000
N2   N   0.665701717392292   0.331490718810783   0.111055572006686   1.0000000
N2   N   0.663023301751336   0.471865049836359   0.110948606494791   1.0000000
N2   N   0.657540383664195   0.626710445538507   0.111155084874410   1.0000000
N2   N   0.667856875610554   0.769968187611292   0.110995575805761   1.0000000
N2   N   0.810864257105504   0.908423452568419   0.110942493081789   1.0000000
N2   N   0.811629826906974   0.051171259317998   0.110913505094409   1.0000000
N2   N   0.811212966479817   0.192816722267055   0.111007136388267   1.0000000
N2   N   0.810332284609239   0.334440062501181   0.111034039699967   1.0000000
N2   N   0.808436384462143   0.476331794894910   0.110978434446451   1.0000000
N2   N   0.803526666100628   0.618682911495277   0.110994312936412   1.0000000
N2   N   0.807230744327294   0.763221381737684   0.111050937001790   1.0000000


