data_1
_audit_creation_method   'vasp2cif'
_cell_length_a    14.93631414619966
_cell_length_b    14.936314146199727
_cell_length_c    13.341276283792837
_cell_angle_alpha    90.0
_cell_angle_beta    90.0
_cell_angle_gamma    119.99999999999984

_symmetry_space_group_name_H-M    'P 1'
loop_
_atom_site_label
_atom_site_type_symbol
_atom_site_fract_x
_atom_site_fract_y
_atom_site_fract_z
_atom_site_occupancy
C2   C   0.391467651318453   0.445757538694604   0.375000000000000   1.0000000
C2   C   0.450667123205883   0.401334246411760   0.375000000000000   1.0000000
C2   C   0.554289887376150   0.445757538694604   0.375000000000000   1.0000000
N2   N   0.111130095310652   0.055574744205385   0.125147654415967   1.0000000
N2   N   0.611108719719859   0.555579549077950   0.124519381509252   1.0000000
N2   N   0.444444648894733   0.055574744205385   0.125147654415967   1.0000000
N2   N   0.944442055160933   0.555564212318651   0.125026160389978   1.0000000
N2   N   0.777800169371395   0.055600338742791   0.125029426189843   1.0000000
N2   N   0.111112221159198   0.722224442318397   0.624971608690071   1.0000000
N2   N   0.444467346453628   0.722247109189134   0.625031189257861   1.0000000
N2   N   0.277806520078098   0.222239509374468   0.624935493351763   1.0000000
N2   N   0.777779762735506   0.722247109189134   0.625031189257861   1.0000000
N2   N   0.611106348012962   0.222246868869555   0.624891964964206   1.0000000
N2   N   0.944465565311121   0.222252809490763   0.624979257661464   1.0000000
N2   N   0.277789922830596   0.722227918709908   0.125038265807336   1.0000000
N2   N   0.111140520856600   0.222246868869555   0.125108035035787   1.0000000
N2   N   0.444432989296369   0.222239509374468   0.125064506648237   1.0000000
N2   N   0.611129862379466   0.722259724758918   0.124859617734293   1.0000000
N2   N   0.944437995879313   0.722227918709908   0.125038265807336   1.0000000
N2   N   0.777787244179642   0.222252809490763   0.125020742338536   1.0000000
N2   N   0.111111466593849   0.888895543563676   0.624926615592696   1.0000000
N2   N   0.444458629030283   0.888913999089499   0.624968089371847   1.0000000
N2   N   0.277788963690073   0.388888473738462   0.625244266428983   1.0000000
N2   N   0.611099510048403   0.388888473738462   0.625244266428983   1.0000000
N2   N   0.777801831672664   0.888934208079022   0.624984131766441   1.0000000
N2   N   0.944454686533917   0.388909373067831   0.624993369828484   1.0000000
N2   N   0.111129107526039   0.388906580771373   0.125025814220836   1.0000000
N2   N   0.277784076969834   0.888895543563676   0.125073384407304   1.0000000
N2   N   0.611132376406364   0.888934208079022   0.125015868233559   1.0000000
N2   N   0.444443780286091   0.388887560572175   0.123271652655253   1.0000000
N2   N   0.944455370059223   0.888913999089499   0.125031910628153   1.0000000
N2   N   0.777777473245340   0.388906580771373   0.125025814220836   1.0000000
N2   N   0.277803980736898   0.555561684693985   0.624978399377919   1.0000000
N2   N   0.111130095310652   0.055574744205385   0.624852345584033   1.0000000
N2   N   0.611108719719859   0.555579549077950   0.625480618490748   1.0000000
N2   N   0.444444648894733   0.055574744205385   0.624852345584033   1.0000000
N2   N   0.944442055160933   0.555564212318651   0.624973839610022   1.0000000
N2   N   0.111122157157719   0.555564212318651   0.125026160389978   1.0000000
N2   N   0.777800169371395   0.055600338742791   0.624970573810157   1.0000000
N2   N   0.277780413375452   0.055560826750896   0.125257447272922   1.0000000
N2   N   0.444470829358091   0.555579549077950   0.124519381509252   1.0000000
N2   N   0.777757703957087   0.555561684693985   0.125021600622081   1.0000000
N2   N   0.611117990244457   0.055591763530386   0.125058739747709   1.0000000
N2   N   0.444470829358091   0.555579549077950   0.625480618490748   1.0000000
N2   N   0.944473773285928   0.055591763530386   0.125058739747709   1.0000000
N2   N   0.277789922830596   0.722227918709908   0.624961734192664   1.0000000
N2   N   0.111140520856600   0.222246868869555   0.624891964964206   1.0000000
N2   N   0.444432989296369   0.222239509374468   0.624935493351763   1.0000000
N2   N   0.611129862379466   0.722259724758918   0.625140382265707   1.0000000
N2   N   0.944437995879313   0.722227918709908   0.624961734192664   1.0000000
N2   N   0.777787244179642   0.222252809490763   0.624979257661464   1.0000000
N2   N   0.111112221159198   0.722224442318397   0.125028391309921   1.0000000
N2   N   0.444467346453628   0.722247109189134   0.124968810742139   1.0000000
N2   N   0.277806520078098   0.222239509374468   0.125064506648237   1.0000000
N2   N   0.777779762735506   0.722247109189134   0.124968810742139   1.0000000
N2   N   0.611106348012962   0.222246868869555   0.125108035035787   1.0000000
N2   N   0.944465565311121   0.222252809490763   0.125020742338536   1.0000000
N2   N   0.111129107526039   0.388906580771373   0.624974185779164   1.0000000
N2   N   0.277784076969834   0.888895543563676   0.624926615592696   1.0000000
N2   N   0.611132376406364   0.888934208079022   0.624984131766441   1.0000000
N2   N   0.444443780286091   0.388887560572175   0.626728347344747   1.0000000
N2   N   0.944455370059223   0.888913999089499   0.624968089371847   1.0000000
N2   N   0.111111466593849   0.888895543563676   0.125073384407304   1.0000000
N2   N   0.777777473245340   0.388906580771373   0.624974185779164   1.0000000
N2   N   0.444458629030283   0.888913999089499   0.125031910628153   1.0000000
N2   N   0.277788963690073   0.388888473738462   0.124755733571016   1.0000000
N2   N   0.277803980736898   0.555561684693985   0.125021600622081   1.0000000
N2   N   0.611099510048403   0.388888473738462   0.124755733571016   1.0000000
N2   N   0.777801831672664   0.888934208079022   0.125015868233559   1.0000000
N2   N   0.944454686533917   0.388909373067831   0.125006630171516   1.0000000
N2   N   0.111122157157719   0.555564212318651   0.624973839610022   1.0000000
N2   N   0.277780413375452   0.055560826750896   0.624742552727079   1.0000000
N2   N   0.777757703957087   0.555561684693985   0.624978399377919   1.0000000
N2   N   0.611117990244457   0.055591763530386   0.624941260252291   1.0000000
N2   N   0.944473773285928   0.055591763530386   0.624941260252291   1.0000000
N2   N   0.056717525020727   0.110426893785800   0.375000000000000   1.0000000
N2   N   0.559166004772976   0.618332009545959   0.375000000000000   1.0000000
N2   N   0.386030808126046   0.108695964260495   0.375000000000000   1.0000000
N2   N   0.887668304397478   0.609684352275386   0.375000000000000   1.0000000
N2   N   0.721808937718261   0.111528178040377   0.375000000000000   1.0000000
N2   N   0.055561332393456   0.777788518855140   0.875000000000000   1.0000000
N2   N   0.388893123322145   0.777788550704848   0.875000000000000   1.0000000
N2   N   0.222224696053225   0.277783914580793   0.875000000000000   1.0000000
N2   N   0.722226021800763   0.777783693922424   0.875000000000000   1.0000000
N2   N   0.555559218527569   0.277783914580793   0.875000000000000   1.0000000
N2   N   0.888894616291755   0.277789232583515   0.875000000000000   1.0000000
N2   N   0.221243302675141   0.775748207789005   0.375000000000000   1.0000000
N2   N   0.057643686567610   0.276665252617872   0.375000000000000   1.0000000
N2   N   0.556492152317623   0.781031131996551   0.375000000000000   1.0000000
N2   N   0.889970984895118   0.778509206666684   0.375000000000000   1.0000000
N2   N   0.719021566050262   0.276665252617872   0.375000000000000   1.0000000
N2   N   0.055559020866813   0.944453575117851   0.875000000000000   1.0000000
N2   N   0.388894554251038   0.944453575117851   0.875000000000000   1.0000000
N2   N   0.222225920771475   0.444455146140568   0.875000000000000   1.0000000
N2   N   0.555564277194117   0.444455564077272   0.875000000000000   1.0000000
N2   N   0.722225203673371   0.944450407346735   0.875000000000000   1.0000000
N2   N   0.888896603387486   0.444456729990297   0.875000000000000   1.0000000
N2   N   0.055098936685525   0.442976782081691   0.375000000000000   1.0000000
N2   N   0.220545477823380   0.941090955646766   0.375000000000000   1.0000000
N2   N   0.555313151877303   0.945569801366680   0.375000000000000   1.0000000
N2   N   0.890256649489377   0.945569801366680   0.375000000000000   1.0000000
N2   N   0.720776599908801   0.442639123562476   0.375000000000000   1.0000000
N2   N   0.222224614815614   0.611121128768697   0.875000000000000   1.0000000
N2   N   0.055558569176748   0.111115749911544   0.875000000000000   1.0000000
N2   N   0.555558014759627   0.611116029519261   0.875000000000000   1.0000000
N2   N   0.388892319141691   0.111115045956405   0.875000000000000   1.0000000
N2   N   0.888896513953083   0.611121128768697   0.875000000000000   1.0000000
N2   N   0.054648489541565   0.609296979083130   0.375000000000000   1.0000000
N2   N   0.722223392162236   0.111117297548659   0.875000000000000   1.0000000
N2   N   0.222665156134442   0.108695964260495   0.375000000000000   1.0000000
N2   N   0.389849975150534   0.614017030302713   0.375000000000000   1.0000000
N2   N   0.724167055152172   0.614017030302713   0.375000000000000   1.0000000
N2   N   0.553709368765066   0.110426893785800   0.375000000000000   1.0000000
N2   N   0.388891235067137   0.611118991180632   0.875000000000000   1.0000000
N2   N   0.889719240322110   0.111528178040377   0.375000000000000   1.0000000
N2   N   0.222227186461683   0.777788518855140   0.875000000000000   1.0000000
N2   N   0.055560169569815   0.277786362731125   0.875000000000000   1.0000000
N2   N   0.388889507983511   0.277779015967022   0.875000000000000   1.0000000
N2   N   0.555557672121654   0.777783693922424   0.875000000000000   1.0000000
N2   N   0.888895427382704   0.777788550704848   0.875000000000000   1.0000000
N2   N   0.722226193161310   0.277786362731125   0.875000000000000   1.0000000
N2   N   0.054504905113864   0.775748207789005   0.375000000000000   1.0000000
N2   N   0.388538221771557   0.778509206666684   0.375000000000000   1.0000000
N2   N   0.227443555345180   0.274346703530174   0.375000000000000   1.0000000
N2   N   0.724538979678928   0.781031131996551   0.375000000000000   1.0000000
N2   N   0.546903148184995   0.274346703530174   0.375000000000000   1.0000000
N2   N   0.888520205623785   0.277040411247572   0.375000000000000   1.0000000
N2   N   0.055560126602811   0.444456729990297   0.875000000000000   1.0000000
N2   N   0.222227013286534   0.944454026573068   0.875000000000000   1.0000000
N2   N   0.555557531547311   0.944452509452645   0.875000000000000   1.0000000
N2   N   0.388891286883155   0.444455564077272   0.875000000000000   1.0000000
N2   N   0.888894977905334   0.944452509452645   0.875000000000000   1.0000000
N2   N   0.055867302176862   0.943598744555925   0.375000000000000   1.0000000
N2   N   0.722229225369093   0.444455146140568   0.875000000000000   1.0000000
N2   N   0.387731442379063   0.943598744555925   0.375000000000000   1.0000000
N2   N   0.221862523653682   0.442639123562476   0.375000000000000   1.0000000
N2   N   0.222016047877901   0.609684352275386   0.375000000000000   1.0000000
N2   N   0.723119102283353   0.946238204566707   0.375000000000000   1.0000000
N2   N   0.887877845396166   0.442976782081691   0.375000000000000   1.0000000
N2   N   0.055560255151441   0.611120510302889   0.875000000000000   1.0000000
N2   N   0.222222726814706   0.111115045956405   0.875000000000000   1.0000000
N2   N   0.722227756113487   0.611118991180632   0.875000000000000   1.0000000
N2   N   0.555557180734795   0.111115749911544   0.875000000000000   1.0000000
N2   N   0.888893905386416   0.111117297548659   0.875000000000000   1.0000000
B2   B   0.111336529230942   0.054404561676089   0.375000000000000   1.0000000
B2   B   0.614006589828240   0.562939517448556   0.375000000000000   1.0000000
B2   B   0.443068032445147   0.054404561676089   0.375000000000000   1.0000000
B2   B   0.943360661832155   0.554037206675599   0.375000000000000   1.0000000
B2   B   0.778421163014842   0.056842326029685   0.375000000000000   1.0000000
B2   B   0.111113184174263   0.722226368348512   0.875000000000000   1.0000000
B2   B   0.444446042999592   0.722216120748473   0.875000000000000   1.0000000
B2   B   0.277794305325892   0.222246471513607   0.875000000000000   1.0000000
B2   B   0.777770077748872   0.722216120748473   0.875000000000000   1.0000000
B2   B   0.611112968534515   0.222240152631073   0.875000000000000   1.0000000
B2   B   0.944453948161632   0.222236160775847   0.875000000000000   1.0000000
B2   B   0.277372156209630   0.720943847932202   0.375000000000000   1.0000000
B2   B   0.114478167724200   0.220905709094722   0.375000000000000   1.0000000
B2   B   0.432995144790515   0.218523038840405   0.375000000000000   1.0000000
B2   B   0.613869355045860   0.727738710091712   0.375000000000000   1.0000000
B2   B   0.943571691722579   0.720943847932202   0.375000000000000   1.0000000
B2   B   0.776577777034714   0.222249188513387   0.375000000000000   1.0000000
B2   B   0.111112206792940   0.888895992654317   0.875000000000000   1.0000000
B2   B   0.444448684954404   0.888891156402739   0.875000000000000   1.0000000
B2   B   0.277801625747887   0.388909526598403   0.875000000000000   1.0000000
B2   B   0.611107900850516   0.388909526598403   0.875000000000000   1.0000000
B2   B   0.777774530674608   0.888883982189029   0.875000000000000   1.0000000
B2   B   0.944452154589747   0.388904309179495   0.875000000000000   1.0000000
B2   B   0.111123872122301   0.387741333376843   0.375000000000000   1.0000000
B2   B   0.276735516352266   0.886491629537082   0.375000000000000   1.0000000
B2   B   0.611908051340441   0.891333853323510   0.375000000000000   1.0000000
B2   B   0.945124955044177   0.889251441837533   0.375000000000000   1.0000000
B2   B   0.776617461254541   0.387741333376843   0.375000000000000   1.0000000
B2   B   0.277788781868119   0.555561587399977   0.875000000000000   1.0000000
B2   B   0.111118278820463   0.055567920426239   0.875000000000000   1.0000000
B2   B   0.611102995455147   0.555550716878574   0.875000000000000   1.0000000
B2   B   0.444449641605776   0.055567920426239   0.875000000000000   1.0000000
B2   B   0.944446212596229   0.555564580271104   0.875000000000000   1.0000000
B2   B   0.110676544843445   0.554037206675599   0.375000000000000   1.0000000
B2   B   0.777779757947986   0.055559515895971   0.875000000000000   1.0000000
B2   B   0.275417897215144   0.050835794430289   0.375000000000000   1.0000000
B2   B   0.448932927620310   0.562939517448556   0.375000000000000   1.0000000
B2   B   0.776380769994531   0.554723716323676   0.375000000000000   1.0000000
B2   B   0.610642004853255   0.056176693323591   0.375000000000000   1.0000000
B2   B   0.444447721423434   0.555550716878574   0.875000000000000   1.0000000
B2   B   0.945534688470336   0.056176693323591   0.375000000000000   1.0000000
B2   B   0.277784060343802   0.722225337941317   0.875000000000000   1.0000000
B2   B   0.111127184096565   0.222240152631073   0.875000000000000   1.0000000
B2   B   0.444452166187715   0.222246471513607   0.875000000000000   1.0000000
B2   B   0.611105000307463   0.722210000614911   0.875000000000000   1.0000000
B2   B   0.944441277597516   0.722225337941317   0.875000000000000   1.0000000
B2   B   0.777782212614216   0.222236160775847   0.875000000000000   1.0000000
B2   B   0.110121642335280   0.720243284670554   0.375000000000000   1.0000000
B2   B   0.445168919340991   0.724659193126573   0.375000000000000   1.0000000
B2   B   0.285527894049883   0.218523038840405   0.375000000000000   1.0000000
B2   B   0.779490273785582   0.724659193126573   0.375000000000000   1.0000000
B2   B   0.606427541370536   0.220905709094722   0.375000000000000   1.0000000
B2   B   0.945671411478673   0.222249188513387   0.375000000000000   1.0000000
B2   B   0.111125631036994   0.388905187198542   0.875000000000000   1.0000000
B2   B   0.277783785861384   0.888895992654317   0.875000000000000   1.0000000
B2   B   0.611109451514436   0.888883982189029   0.875000000000000   1.0000000
B2   B   0.444455320481899   0.388910640963797   0.875000000000000   1.0000000
B2   B   0.944442471448327   0.888891156402739   0.875000000000000   1.0000000
B2   B   0.109756113184823   0.886491629537082   0.375000000000000   1.0000000
B2   B   0.777779556161554   0.388905187198542   0.875000000000000   1.0000000
B2   B   0.444126486793362   0.889251441837533   0.375000000000000   1.0000000
B2   B   0.275877021985990   0.385420384423813   0.375000000000000   1.0000000
B2   B   0.278342946329138   0.554723716323676   0.375000000000000   1.0000000
B2   B   0.609543362437829   0.385420384423813   0.375000000000000   1.0000000
B2   B   0.779425801983076   0.891333853323510   0.375000000000000   1.0000000
B2   B   0.943946174886512   0.387892349773017   0.375000000000000   1.0000000
B2   B   0.111118367674874   0.555564580271104   0.875000000000000   1.0000000
B2   B   0.277786224264504   0.055572448529008   0.875000000000000   1.0000000
B2   B   0.777772805531865   0.555561587399977   0.875000000000000   1.0000000
B2   B   0.611113001439963   0.055562151217818   0.875000000000000   1.0000000
B2   B   0.944449149777856   0.055562151217818   0.875000000000000   1.0000000
B2   B   0.055585364530965   0.111158954924241   0.125044290690981   1.0000000
B2   B   0.555547679599279   0.611095359198557   0.124694401291299   1.0000000
B2   B   0.388914064904597   0.111173056797128   0.125108132939893   1.0000000
B2   B   0.888848300338992   0.611094813636538   0.125017498400297   1.0000000
B2   B   0.722240758061282   0.111152319426530   0.125007452289549   1.0000000
B2   B   0.055536463992790   0.777761527470276   0.624998195970093   1.0000000
B2   B   0.388914986341006   0.777776427543040   0.625000572039624   1.0000000
B2   B   0.222288629653957   0.277847326915022   0.625026094680457   1.0000000
B2   B   0.722212401342477   0.777789563576444   0.625047058807574   1.0000000
B2   B   0.555558697261059   0.277847326915022   0.625026094680457   1.0000000
B2   B   0.888903450312854   0.277806900625724   0.624995582533957   1.0000000
B2   B   0.222225063477492   0.777761527470276   0.125001804029907   1.0000000
B2   B   0.055588250160257   0.277813620065705   0.125024011349780   1.0000000
B2   B   0.388977860360951   0.277955720721915   0.124581628384903   1.0000000
B2   B   0.555577162233966   0.777789563576444   0.124952941192426   1.0000000
B2   B   0.888861441202019   0.777776427543040   0.124999427960369   1.0000000
B2   B   0.722225369905448   0.277813620065705   0.125024011349780   1.0000000
B2   B   0.055553216464991   0.944462053086711   0.624979661186469   1.0000000
B2   B   0.388908836621727   0.944462053086711   0.624979661186469   1.0000000
B2   B   0.222274723896608   0.444441770454820   0.625021962201903   1.0000000
B2   B   0.555452280891726   0.444421677633202   0.625459216774383   1.0000000
B2   B   0.722238641877752   0.944477283755506   0.624996956851863   1.0000000
B2   B   0.888877562440311   0.444448243908771   0.624994107290256   1.0000000
B2   B   0.055570681468460   0.444448243908771   0.125005892709744   1.0000000
B2   B   0.222222092896555   0.944444185793110   0.125036327040307   1.0000000
B2   B   0.555575735894960   0.944470940478926   0.125006418292513   1.0000000
B2   B   0.388969396741469   0.444421677633202   0.124540783225617   1.0000000
B2   B   0.888895204583973   0.944470940478926   0.125006418292513   1.0000000
B2   B   0.722167046558212   0.444441770454820   0.124978037798097   1.0000000
B2   B   0.222246513297539   0.611094813636538   0.624982501599703   1.0000000
B2   B   0.055585364530965   0.111158954924241   0.624955709309019   1.0000000
B2   B   0.555547679599279   0.611095359198557   0.625305598708702   1.0000000
B2   B   0.388914064904597   0.111173056797128   0.624891867060107   1.0000000
B2   B   0.888848300338992   0.611094813636538   0.624982501599703   1.0000000
B2   B   0.055547998114311   0.611095996228622   0.125002237457836   1.0000000
B2   B   0.722240758061282   0.111152319426530   0.624992547710450   1.0000000
B2   B   0.222258991892525   0.111173056797128   0.125108132939893   1.0000000
B2   B   0.388941927725264   0.611091958955454   0.124895662219211   1.0000000
B2   B   0.722150031230183   0.611091958955454   0.124895662219211   1.0000000
B2   B   0.555573590393276   0.111158954924241   0.125044290690981   1.0000000
B2   B   0.388941927725264   0.611091958955454   0.625104337780789   1.0000000
B2   B   0.888911561365241   0.111152319426530   0.125007452289549   1.0000000
B2   B   0.222225063477492   0.777761527470276   0.624998195970093   1.0000000
B2   B   0.055588250160257   0.277813620065705   0.624975988650220   1.0000000
B2   B   0.388977860360951   0.277955720721915   0.625418371615097   1.0000000
B2   B   0.555577162233966   0.777789563576444   0.625047058807574   1.0000000
B2   B   0.888861441202019   0.777776427543040   0.625000572039624   1.0000000
B2   B   0.722225369905448   0.277813620065705   0.624975988650220   1.0000000
B2   B   0.055536463992790   0.777761527470276   0.125001804029907   1.0000000
B2   B   0.388914986341006   0.777776427543040   0.124999427960369   1.0000000
B2   B   0.222288629653957   0.277847326915022   0.124973905319544   1.0000000
B2   B   0.722212401342477   0.777789563576444   0.124952941192426   1.0000000
B2   B   0.555558697261059   0.277847326915022   0.124973905319544   1.0000000
B2   B   0.888903450312854   0.277806900625724   0.125004417466043   1.0000000
B2   B   0.055570681468460   0.444448243908771   0.624994107290256   1.0000000
B2   B   0.222222092896555   0.944444185793110   0.624963672959700   1.0000000
B2   B   0.555575735894960   0.944470940478926   0.624993581707487   1.0000000
B2   B   0.388969396741469   0.444421677633202   0.625459216774383   1.0000000
B2   B   0.888895204583973   0.944470940478926   0.624993581707487   1.0000000
B2   B   0.055553216464991   0.944462053086711   0.125020338813538   1.0000000
B2   B   0.722167046558212   0.444441770454820   0.625021962201903   1.0000000
B2   B   0.388908836621727   0.944462053086711   0.125020338813538   1.0000000
B2   B   0.222274723896608   0.444441770454820   0.124978037798097   1.0000000
B2   B   0.222246513297539   0.611094813636538   0.125017498400297   1.0000000
B2   B   0.555452280891726   0.444421677633202   0.124540783225617   1.0000000
B2   B   0.722238641877752   0.944477283755506   0.125003043148137   1.0000000
B2   B   0.888877562440311   0.444448243908771   0.125005892709744   1.0000000
B2   B   0.055547998114311   0.611095996228622   0.624997762542165   1.0000000
B2   B   0.222258991892525   0.111173056797128   0.624891867060107   1.0000000
B2   B   0.722150031230183   0.611091958955454   0.625104337780789   1.0000000
B2   B   0.555573590393276   0.111158954924241   0.624955709309019   1.0000000
B2   B   0.888911561365241   0.111152319426530   0.624992547710450   1.0000000


