data_1
_audit_creation_method   'vasp2cif'
_cell_length_a    17.52789999999977
_cell_length_b    17.52789999999977
_cell_length_c    15.0
_cell_angle_alpha    90.0
_cell_angle_beta    90.0
_cell_angle_gamma    119.99999999999916

_symmetry_space_group_name_H-M    'P 1'
loop_
_atom_site_label
_atom_site_type_symbol
_atom_site_fract_x
_atom_site_fract_y
_atom_site_fract_z
_atom_site_occupancy
B2   B   0.904751551070440   0.952156377137557   0.110997706536137   1.0000000
B2   B   0.904811965750131   0.095190055445865   0.111055188541587   1.0000000
B2   B   0.904811965750131   0.238193216630265   0.111055188541587   1.0000000
B2   B   0.904751551070440   0.381168191814884   0.110997706536137   1.0000000
B2   B   0.904611071110744   0.523905633450639   0.111020716901243   1.0000000
B2   B   0.904623820098117   0.666598418990557   0.111070408736136   1.0000000
B2   B   0.904611071110744   0.809278455543109   0.111020716901243   1.0000000
B2   B   0.047692348334045   0.952309672861959   0.110997825334965   1.0000000
B2   B   0.047845644058446   0.095250470125557   0.110997706536137   1.0000000
B2   B   0.047818378891018   0.238195698386510   0.110982563417765   1.0000000
B2   B   0.047845644058446   0.381168191814884   0.110997706536137   1.0000000
B2   B   0.047692348334045   0.523957404911085   0.110997825334965   1.0000000
B2   B   0.047588997110378   0.666707438722654   0.111013699037984   1.0000000
B2   B   0.047588997110378   0.809456287826723   0.111013699037984   1.0000000
B2   B   0.190545733369280   0.952413024085626   0.111013699037984   1.0000000
B2   B   0.190723565652894   0.095390950085252   0.111020716901243   1.0000000
B2   B   0.190533644955488   0.238170384497783   0.110989323702818   1.0000000
B2   B   0.190533644955488   0.380936278339706   0.110989323702818   1.0000000
B2   B   0.190723565652894   0.523905633450639   0.111020716901243   1.0000000
B2   B   0.190545733369280   0.666707438722654   0.111013699037984   1.0000000
B2   B   0.190476437651000   0.809525583545003   0.110977227092712   1.0000000
B2   B   0.333294582474345   0.952413024085626   0.111013699037984   1.0000000
B2   B   0.333403602206441   0.095378201097878   0.111070408736136   1.0000000
B2   B   0.333399788577872   0.238189396414944   0.111058241452524   1.0000000
B2   B   0.332716365171593   0.380644691526296   0.110947122527365   1.0000000
B2   B   0.333399788577872   0.523783410044929   0.111058241452524   1.0000000
B2   B   0.333403602206441   0.666598418990557   0.111070408736136   1.0000000
B2   B   0.333294582474345   0.809456287826723   0.111013699037984   1.0000000
B2   B   0.476044616285913   0.952309672861959   0.110997825334965   1.0000000
B2   B   0.476096387746359   0.095390950085252   0.111020716901243   1.0000000
B2   B   0.476218611152069   0.238189396414944   0.111058241452524   1.0000000
B2   B   0.474913118019197   0.378397232723398   0.111289267041723   1.0000000
B2   B   0.474913118019197   0.525088903177801   0.111289267041723   1.0000000
B2   B   0.476218611152069   0.666602232619127   0.111058241452524   1.0000000
B2   B   0.476096387746359   0.809278455543109   0.111020716901243   1.0000000
B2   B   0.618833829381120   0.952156377137557   0.110997706536137   1.0000000
B2   B   0.618833829381120   0.095250470125557   0.110997706536137   1.0000000
B2   B   0.619065742856296   0.238170384497783   0.110989323702818   1.0000000
B2   B   0.619357329669707   0.380644691526296   0.110947122527365   1.0000000
B2   B   0.621604788472606   0.525088903177801   0.111289267041723   1.0000000
B2   B   0.619357329669707   0.667285656025406   0.110947122527365   1.0000000
B2   B   0.619065742856296   0.809468376240516   0.110989323702818   1.0000000
B2   B   0.761806322809493   0.952183642304985   0.110982563417765   1.0000000
B2   B   0.761808804565738   0.095190055445865   0.111055188541587   1.0000000
B2   B   0.761806322809493   0.238195698386510   0.110982563417765   1.0000000
B2   B   0.761831636698221   0.380936278339706   0.110989323702818   1.0000000
B2   B   0.761812624781059   0.523783410044929   0.111058241452524   1.0000000
B2   B   0.761812624781059   0.666602232619127   0.111058241452524   1.0000000
B2   B   0.761831636698221   0.809468376240516   0.110989323702818   1.0000000
N2   N   0.952272530460911   0.904792407093721   0.110985275391948   1.0000000
N2   N   0.952322981212610   0.047678420705396   0.111004033681892   1.0000000
N2   N   0.952283279960782   0.190426437356891   0.111027034200126   1.0000000
N2   N   0.952322981212610   0.333214155260213   0.111004033681892   1.0000000
N2   N   0.952272530460911   0.476051429676187   0.110985275391948   1.0000000
N2   N   0.952259228935230   0.618956254453307   0.111029241374345   1.0000000
N2   N   0.952259228935230   0.761874280791920   0.111029241374345   1.0000000
N2   N   0.095186219066410   0.904815182851588   0.110986333788377   1.0000000
N2   N   0.095208994824278   0.047728871457094   0.110985275391948   1.0000000
N2   N   0.095083716030225   0.190467248763026   0.110972554922103   1.0000000
N2   N   0.095083716030225   0.333187773576202   0.110972554922103   1.0000000
N2   N   0.095208994824278   0.476051429676187   0.110985275391948   1.0000000
N2   N   0.095186219066410   0.618944054080822   0.110986333788377   1.0000000
N2   N   0.095197961771340   0.761885489818674   0.110979863118279   1.0000000
N2   N   0.238115912099332   0.904803440146659   0.110979863118279   1.0000000
N2   N   0.238127121126085   0.047742172982775   0.111029241374345   1.0000000
N2   N   0.238159383951212   0.190699312964202   0.110995305909528   1.0000000
N2   N   0.237881105191896   0.333226205750446   0.110928122051291   1.0000000
N2   N   0.238159383951212   0.476031377296006   0.110995305909528   1.0000000
N2   N   0.238127121126085   0.618956254453307   0.111029241374345   1.0000000
N2   N   0.238115912099332   0.761885489818674   0.110979863118279   1.0000000
N2   N   0.381057347837177   0.904815182851588   0.110986333788377   1.0000000
N2   N   0.381045147464691   0.047742172982775   0.111029241374345   1.0000000
N2   N   0.381074235207338   0.190718374806675   0.111073413830683   1.0000000
N2   N   0.381269463636736   0.333936389494276   0.111072170247867   1.0000000
N2   N   0.381269463636736   0.475904380451456   0.111072170247867   1.0000000
N2   N   0.381074235207338   0.618927166710660   0.111073413830683   1.0000000
N2   N   0.381045147464691   0.761874280791920   0.111029241374345   1.0000000
N2   N   0.523949972240810   0.904792407093721   0.110985275391948   1.0000000
N2   N   0.523949972240810   0.047728871457094   0.110985275391948   1.0000000
N2   N   0.523970024620991   0.190699312964202   0.110995305909528   1.0000000
N2   N   0.524097021465541   0.333936389494276   0.111072170247867   1.0000000
N2   N   0.524097021465541   0.618731938281262   0.111072170247867   1.0000000
N2   N   0.523970024620991   0.761842017966794   0.110995305909528   1.0000000
N2   N   0.666813628340795   0.904917685887773   0.110972554922103   1.0000000
N2   N   0.666787246656783   0.047678420705396   0.111004033681892   1.0000000
N2   N   0.666813628340795   0.190467248763026   0.110972554922103   1.0000000
N2   N   0.666775196166551   0.333226205750446   0.110928122051291   1.0000000
N2   N   0.666065012422721   0.475904380451456   0.111072170247867   1.0000000
N2   N   0.666065012422721   0.618731938281262   0.111072170247867   1.0000000
N2   N   0.666775196166551   0.762120296726110   0.110928122051291   1.0000000
N2   N   0.809534153154972   0.904917685887773   0.110972554922103   1.0000000
N2   N   0.809574964561107   0.047718121957224   0.111027034200126   1.0000000
N2   N   0.809574964561107   0.190426437356891   0.111027034200126   1.0000000
N2   N   0.809534153154972   0.333187773576202   0.110972554922103   1.0000000
N2   N   0.809302088953797   0.476031377296006   0.110995305909528   1.0000000
N2   N   0.809283027111323   0.618927166710660   0.111073413830683   1.0000000
N2   N   0.809302088953797   0.761842017966794   0.110995305909528   1.0000000
O2   O   0.523810499174999   0.476190902741997   0.111153831237728   1.0000000


