data_1
_audit_creation_method   'vasp2cif'
_cell_length_a    17.52789999999977
_cell_length_b    17.52789999999977
_cell_length_c    15.0
_cell_angle_alpha    90.0
_cell_angle_beta    90.0
_cell_angle_gamma    119.99999999999916

_symmetry_space_group_name_H-M    'P 1'
loop_
_atom_site_label
_atom_site_type_symbol
_atom_site_fract_x
_atom_site_fract_y
_atom_site_fract_z
_atom_site_occupancy
B2   B   0.904097481480483   0.950882547202708   0.110353567214543   1.0000000
B2   B   0.905645299249589   0.094356721946407   0.110936819524823   1.0000000
B2   B   0.906137319946471   0.237305407889584   0.111032421957631   1.0000000
B2   B   0.905891174542004   0.380203882528334   0.110075319825826   1.0000000
B2   B   0.904002431923431   0.522857945247056   0.108963893963284   1.0000000
B2   B   0.901869028007826   0.664911994152736   0.108705376105693   1.0000000
B2   B   0.901400780229661   0.806605805280587   0.109711545089178   1.0000000
B2   B   0.047396077215121   0.952605943980882   0.109091910043410   1.0000000
B2   B   0.049119473993296   0.095904539715513   0.110353567214543   1.0000000
B2   B   0.049506397294314   0.238389386762752   0.111597081146748   1.0000000
B2   B   0.048750732570512   0.381019525085545   0.110979753744570   1.0000000
B2   B   0.047012605253147   0.523904128060356   0.109503978308557   1.0000000
B2   B   0.045961788185787   0.666670016854817   0.108533417131950   1.0000000
B2   B   0.046066307930113   0.809404403637367   0.108359434794152   1.0000000
B2   B   0.190597617558636   0.953935713265890   0.108359434794152   1.0000000
B2   B   0.193396215915416   0.098601240966336   0.109711545089178   1.0000000
B2   B   0.194117390840451   0.240786097593873   0.112359356766752   1.0000000
B2   B   0.192474618833110   0.382259053456225   0.113577385757899   1.0000000
B2   B   0.189498729583079   0.524874087472867   0.110845430328103   1.0000000
B2   B   0.188914486242543   0.667702680140869   0.109235049783073   1.0000000
B2   B   0.189410428361334   0.810591592834662   0.108365557399575   1.0000000
B2   B   0.333332004342181   0.954040233010216   0.108533417131950   1.0000000
B2   B   0.335090027044263   0.098132993188170   0.108705376105693   1.0000000
B2   B   0.340869682030373   0.246009050597705   0.110636851421247   1.0000000
B2   B   0.338740811135302   0.384336585821761   0.118153371119201   1.0000000
B2   B   0.331181983254085   0.527360577902679   0.115878929668435   1.0000000
B2   B   0.331159737564964   0.668842283632027   0.111528333821934   1.0000000
B2   B   0.332299341056130   0.811087534953461   0.109235049783073   1.0000000
B2   B   0.476097893136642   0.952989415942856   0.109503978308557   1.0000000
B2   B   0.477144075949942   0.095999589272566   0.108963893963284   1.0000000
B2   B   0.479157829046490   0.240191129663514   0.108860850967833   1.0000000
B2   B   0.494851579903019   0.396380851747259   0.108423482145559   1.0000000
B2   B   0.472641443294319   0.668820037942914   0.115878929668435   1.0000000
B2   B   0.475127933724131   0.810503291612925   0.110845430328103   1.0000000
B2   B   0.618982496110458   0.951251288625491   0.110979753744570   1.0000000
B2   B   0.619798138667669   0.094110846653992   0.110075319825826   1.0000000
B2   B   0.620646053511535   0.236462038585074   0.109053366247689   1.0000000
B2   B   0.622117198757552   0.377884822438452   0.108335724079631   1.0000000
B2   B   0.603621169448744   0.505150441293979   0.108423482145559   1.0000000
B2   B   0.615665435374243   0.661261210061696   0.118153371119201   1.0000000
B2   B   0.617742967739778   0.807527402362893   0.113577385757899   1.0000000
B2   B   0.761612634433251   0.950495623901690   0.111597081146748   1.0000000
B2   B   0.762696613306419   0.093864701249526   0.111032421957631   1.0000000
B2   B   0.763263026496305   0.236738994699698   0.110289174662912   1.0000000
B2   B   0.763539982610929   0.379355967684468   0.109053366247689   1.0000000
B2   B   0.759810891532490   0.520844192150508   0.108860850967833   1.0000000
B2   B   0.753992970598299   0.659132339166625   0.110636851421247   1.0000000
B2   B   0.759215923602131   0.805884630355552   0.112359356766752   1.0000000
C2   C   0.468236994908604   0.531765026288394   0.136769700801265   1.0000000
N2   N   0.951092220311620   0.903033525579398   0.109591945858856   1.0000000
N2   N   0.953154502505197   0.046846899412809   0.110374521880554   1.0000000
N2   N   0.953995376290691   0.189950749903241   0.111161626472079   1.0000000
N2   N   0.953755050853612   0.332738971208309   0.110727476828683   1.0000000
N2   N   0.952242789385606   0.475594157432740   0.109463205862333   1.0000000
N2   N   0.950744467385122   0.618279573657691   0.108571887403008   1.0000000
N2   N   0.950271823289701   0.760523492572427   0.108736683709202   1.0000000
N2   N   0.094860654744202   0.905140747173797   0.108392368047744   1.0000000
N2   N   0.096967876338601   0.048909181606386   0.109591945858856   1.0000000
N2   N   0.098030258255641   0.191826543345184   0.111319410202224   1.0000000
N2   N   0.097255881326613   0.333963188568323   0.112000965393742   1.0000000
N2   N   0.094959841462967   0.476430623518595   0.110260868216408   1.0000000
N2   N   0.093966434931766   0.619316023705271   0.108923056541998   1.0000000
N2   N   0.093992695728075   0.762170727388612   0.108243243338270   1.0000000
N2   N   0.237830674529394   0.906008706189924   0.108243243338270   1.0000000
N2   N   0.239477909345579   0.049729578628306   0.108736683709202   1.0000000
N2   N   0.243374579557435   0.195332757866623   0.111034781166799   1.0000000
N2   N   0.242820896183574   0.336903342331766   0.115231080032988   1.0000000
N2   N   0.237624403034345   0.477622731973722   0.112582249288164   1.0000000
N2   N   0.236540570951705   0.620143431701197   0.110252069826466   1.0000000
N2   N   0.237022632339713   0.762978769578293   0.108805902493267   1.0000000
N2   N   0.380685378212727   0.906034966986232   0.108923056541998   1.0000000
N2   N   0.381721828260308   0.049256934532884   0.108571887403008   1.0000000
N2   N   0.383890242141506   0.193755684105290   0.108990941757782   1.0000000
N2   N   0.392355193563905   0.344123220160270   0.112328598193435   1.0000000
N2   N   0.382081392519736   0.482208963712455   0.124370906767511   1.0000000
N2   N   0.378629114839979   0.621372287078020   0.114773237511587   1.0000000
N2   N   0.379857970216801   0.763460830966301   0.110252069826466   1.0000000
N2   N   0.523570778398402   0.905041560455032   0.110260868216408   1.0000000
N2   N   0.524407244484256   0.047758612532400   0.109463205862333   1.0000000
N2   N   0.525520660291473   0.190804636973180   0.108905182955478   1.0000000
N2   N   0.528213542812464   0.334607402786197   0.108507822474144   1.0000000
N2   N   0.517792438204541   0.617920009398262   0.124370906767511   1.0000000
N2   N   0.522378669943275   0.762376998883661   0.112582249288164   1.0000000
N2   N   0.666038213348674   0.902745520591386   0.112000965393742   1.0000000
N2   N   0.667262430708687   0.046246351064394   0.110727476828683   1.0000000
N2   N   0.668079618007274   0.188860766219765   0.109886509900790   1.0000000
N2   N   0.669192752676900   0.330808649240097   0.108486347034424   1.0000000
N2   N   0.665393999130800   0.471787859104532   0.108507822474144   1.0000000
N2   N   0.655878181756727   0.607646208354093   0.112328598193435   1.0000000
N2   N   0.663098059585230   0.757180505734425   0.115231080032988   1.0000000
N2   N   0.808174858572814   0.901971143662357   0.111319410202224   1.0000000
N2   N   0.810050652014758   0.046006025627314   0.111161626472079   1.0000000
N2   N   0.810863622431912   0.189137779486079   0.110933805020338   1.0000000
N2   N   0.811140635698233   0.331921783909722   0.109886509900790   1.0000000
N2   N   0.809196764944819   0.474480741625517   0.108905182955478   1.0000000
N2   N   0.806245717812708   0.616111159776493   0.108990941757782   1.0000000
N2   N   0.804668644051375   0.756626822360570   0.111034781166799   1.0000000


