data_1
_audit_creation_method   'vasp2cif'
_cell_length_a    17.52789999999977
_cell_length_b    17.52789999999977
_cell_length_c    15.0
_cell_angle_alpha    90.0
_cell_angle_beta    90.0
_cell_angle_gamma    119.99999999999916

_symmetry_space_group_name_H-M    'P 1'
loop_
_atom_site_label
_atom_site_type_symbol
_atom_site_fract_x
_atom_site_fract_y
_atom_site_fract_z
_atom_site_occupancy
B2   B   0.902968899160385   0.950011344555804   0.105950645834327   1.0000000
B2   B   0.904199226712883   0.093239360092760   0.107517077522466   1.0000000
B2   B   0.904888748288784   0.236265021218728   0.107404855275313   1.0000000
B2   B   0.905117341433524   0.379328539231629   0.106979733696157   1.0000000
B2   B   0.905263347955845   0.522607789995746   0.106037519362914   1.0000000
B2   B   0.904817089194424   0.665703510772900   0.103367990475512   1.0000000
B2   B   0.903669799876710   0.808253163586656   0.102401801229661   1.0000000
B2   B   0.047512676523254   0.952722862482048   0.104954326681316   1.0000000
B2   B   0.048511571205076   0.095913454005306   0.106326570795083   1.0000000
B2   B   0.048594025282043   0.237979136251383   0.106036628019339   1.0000000
B2   B   0.048052085552761   0.380194369017595   0.104664797908157   1.0000000
B2   B   0.047240361123038   0.523148731960049   0.104373080110875   1.0000000
B2   B   0.046967080498824   0.666494634080017   0.104995153805589   1.0000000
B2   B   0.047123801383307   0.809648355943935   0.104524410694559   1.0000000
B2   B   0.190513269537668   0.953468357119114   0.106729089650535   1.0000000
B2   B   0.191910277042872   0.097426594568468   0.107792332689854   1.0000000
B2   B   0.194516665907528   0.242386871095249   0.107970651067902   1.0000000
B2   B   0.192327132696640   0.382399660430551   0.105069087294119   1.0000000
B2   B   0.189613071021839   0.524085472450601   0.103065255446737   1.0000000
B2   B   0.188603260375587   0.666995689821768   0.104446578027272   1.0000000
B2   B   0.189682162202850   0.810169873294910   0.106140458049900   1.0000000
B2   B   0.333012887462559   0.953048810595241   0.108867457256203   1.0000000
B2   B   0.334072338488291   0.096684570113020   0.112036485533423   1.0000000
B2   B   0.336300404035654   0.241928843032504   0.114973864528451   1.0000000
B2   B   0.342484358185828   0.391824777774566   0.113417401837857   1.0000000
B2   B   0.332576128815148   0.526307048933340   0.106639950299389   1.0000000
B2   B   0.329708366813719   0.667885502926687   0.106792021450040   1.0000000
B2   B   0.331934992827165   0.810111382679082   0.108998523503267   1.0000000
B2   B   0.475435293203496   0.951021456390343   0.111279723176523   1.0000000
B2   B   0.476336134422496   0.094490267438566   0.112591831129791   1.0000000
B2   B   0.477332486302650   0.237823953641041   0.121542288417587   1.0000000
B2   B   0.478711618298298   0.380146832573899   0.140396493526126   1.0000000
B2   B   0.487708100359427   0.573853310408360   0.131574791914019   1.0000000
B2   B   0.468205724173842   0.661467287686847   0.123021635416741   1.0000000
B2   B   0.473858877820263   0.807061188250636   0.115480388442883   1.0000000
B2   B   0.617548789808978   0.948753060374727   0.113062476189000   1.0000000
B2   B   0.618771611908841   0.092775878917266   0.111470724568989   1.0000000
B2   B   0.619581418885751   0.235979321940192   0.115179003138252   1.0000000
B2   B   0.620782263605143   0.378665491361879   0.123121099334043   1.0000000
B2   B   0.624864828201986   0.522412330567434   0.126291507268668   1.0000000
B2   B   0.611786994821443   0.654105630078206   0.108932696099998   1.0000000
B2   B   0.614669919369007   0.803079059919355   0.115793373619596   1.0000000
B2   B   0.759577990737625   0.948252581182928   0.110032133168232   1.0000000
B2   B   0.761237431380835   0.092324374290222   0.109981990589915   1.0000000
B2   B   0.762093292412324   0.235765717981323   0.110313201758913   1.0000000
B2   B   0.762733276409278   0.378932294024381   0.110962578688436   1.0000000
B2   B   0.763484784015851   0.521925479533074   0.107931927513398   1.0000000
B2   B   0.762030084203062   0.664198448803475   0.101202673062275   1.0000000
B2   B   0.757037535575606   0.803438215201453   0.106533560618885   1.0000000
N2   N   0.951639506013386   0.903650524064808   0.104000072186274   1.0000000
N2   N   0.952148953759391   0.046140839515743   0.106602871296055   1.0000000
N2   N   0.952689999624752   0.188929717078565   0.106836229246696   1.0000000
N2   N   0.952618120897810   0.331740460699976   0.106087249446396   1.0000000
N2   N   0.952292045288893   0.474764825493722   0.105909349827471   1.0000000
N2   N   0.952033003212215   0.618056928662050   0.105503914788834   1.0000000
N2   N   0.951676069589823   0.761088065257375   0.102884557196745   1.0000000
N2   N   0.095051468890006   0.905173702831270   0.105176304457835   1.0000000
N2   N   0.096144290083529   0.048498069422223   0.105884428302510   1.0000000
N2   N   0.097792109146909   0.192078958885041   0.106646122711481   1.0000000
N2   N   0.096436817407110   0.333290660450928   0.104750941483651   1.0000000
N2   N   0.094627081338586   0.475518286858318   0.103703029292042   1.0000000
N2   N   0.093837460401510   0.618598368531167   0.103943673051305   1.0000000
N2   N   0.094452989770630   0.761976508493774   0.105459606721212   1.0000000
N2   N   0.237731710256355   0.905583331305451   0.106873403302785   1.0000000
N2   N   0.238812845439099   0.049117953011269   0.108455900998806   1.0000000
N2   N   0.240954686129243   0.193576290561111   0.109300962038454   1.0000000
N2   N   0.244312634573809   0.339054317027937   0.108039693529520   1.0000000
N2   N   0.237720580252834   0.477056383553958   0.103444354775689   1.0000000
N2   N   0.235287780213852   0.619309715332783   0.103408968300066   1.0000000
N2   N   0.236744338809991   0.762375325474807   0.106357820497330   1.0000000
N2   N   0.380216088855384   0.905097117075243   0.109453535073691   1.0000000
N2   N   0.381121692203656   0.048335948576963   0.111015062126235   1.0000000
N2   N   0.382379771341426   0.192343169802783   0.117149357481743   1.0000000
N2   N   0.386022699740820   0.338837898030476   0.120520885846041   1.0000000
N2   N   0.390366499427827   0.489479212641697   0.111349084158249   1.0000000
N2   N   0.375710301844052   0.620562257806199   0.107926227293383   1.0000000
N2   N   0.378869429902146   0.762376827422685   0.111428532877589   1.0000000
N2   N   0.522390327989491   0.902475866289436   0.113662390791127   1.0000000
N2   N   0.523534327964192   0.046288113757143   0.111143764129913   1.0000000
N2   N   0.524402045689328   0.189700776246106   0.116283212174039   1.0000000
N2   N   0.525885535442775   0.333011528661565   0.131501122543952   1.0000000
N2   N   0.519698852672455   0.757162318894125   0.121002605028778   1.0000000
N2   N   0.663976070436263   0.899436665774630   0.113239503549593   1.0000000
N2   N   0.665854326712726   0.044448210748442   0.111238353624380   1.0000000
N2   N   0.666804008060545   0.188162346587845   0.111884267544248   1.0000000
N2   N   0.667586998601003   0.331179118006077   0.116193988107135   1.0000000
N2   N   0.668758932632585   0.473461811246459   0.117224502403481   1.0000000
N2   N   0.666429813776134   0.614227992763617   0.104270611308756   1.0000000
N2   N   0.659399266218827   0.751720685040304   0.110915711018471   1.0000000
N2   N   0.806450124037504   0.899961519859957   0.107688531433823   1.0000000
N2   N   0.808381108698057   0.044234151515418   0.108993643402066   1.0000000
N2   N   0.809402902983763   0.187938988058669   0.109355694919039   1.0000000
N2   N   0.809891962164272   0.331192300879927   0.109380763062049   1.0000000
N2   N   0.810318873342062   0.474218438963362   0.107652957983966   1.0000000
N2   N   0.809700313429339   0.616996480562165   0.102529599439357   1.0000000
N2   N   0.807723906691741   0.759032183857371   0.101169527505164   1.0000000
Ge2   Ge   0.524022869639481   0.500868506008842   0.220331419712018   1.0000000


