data_1
_audit_creation_method   'vasp2cif'
_cell_length_a    14.93631414619966
_cell_length_b    14.936314146199727
_cell_length_c    13.341276283792837
_cell_angle_alpha    90.0
_cell_angle_beta    90.0
_cell_angle_gamma    119.99999999999984

_symmetry_space_group_name_H-M    'P 1'
loop_
_atom_site_label
_atom_site_type_symbol
_atom_site_fract_x
_atom_site_fract_y
_atom_site_fract_z
_atom_site_occupancy
Se2   Se   0.526021828023483   0.429677580678406   0.375000000000000   1.0000000
N2   N   0.110943449280785   0.055475803667300   0.125106771612956   1.0000000
N2   N   0.610993981539317   0.555562040655329   0.124827801569684   1.0000000
N2   N   0.444384786495153   0.055510137138315   0.124997584946254   1.0000000
N2   N   0.944310661551837   0.555481415990325   0.124874387889669   1.0000000
N2   N   0.777672845131797   0.055503089232566   0.124753774264714   1.0000000
N2   N   0.111005834130838   0.722169583732086   0.625115273635313   1.0000000
N2   N   0.444384786495153   0.722207982690169   0.625002415053747   1.0000000
N2   N   0.277537057414760   0.222098160106992   0.624457295641118   1.0000000
N2   N   0.777646260727505   0.722183919135866   0.625222618076738   1.0000000
N2   N   0.611027938010974   0.222126379067943   0.625247339822368   1.0000000
N2   N   0.944287444335106   0.222137102399348   0.625159518144193   1.0000000
N2   N   0.277703620206982   0.722182066859764   0.124945399550565   1.0000000
N2   N   0.110897032961634   0.222115183147482   0.125171820595806   1.0000000
N2   N   0.444358499610649   0.222152861007742   0.125306892165565   1.0000000
N2   N   0.611027938010974   0.722234892276356   0.124752660177633   1.0000000
N2   N   0.944310661551837   0.722162578894843   0.124874387889669   1.0000000
N2   N   0.777670471519838   0.222138184772202   0.124730616935435   1.0000000
N2   N   0.110997791466037   0.888841540881940   0.625057211148134   1.0000000
N2   N   0.444387111596150   0.888860222464741   0.625120941425423   1.0000000
N2   N   0.277537057414760   0.388772230641095   0.624457295641118   1.0000000
N2   N   0.610993981539317   0.388765274217316   0.625172198430316   1.0000000
N2   N   0.777670471519838   0.888865620080962   0.625269383064568   1.0000000
N2   N   0.944306475404439   0.388806342247012   0.625160387164268   1.0000000
N2   N   0.110943449280785   0.388800978946813   0.125106771612956   1.0000000
N2   N   0.277703620206982   0.888854886680537   0.124945399550565   1.0000000
N2   N   0.611041365550876   0.888877598464590   0.124783002837365   1.0000000
N2   N   0.444093277532935   0.388713305433131   0.124333067176542   1.0000000
N2   N   0.944306475404439   0.888833466490755   0.124839612835728   1.0000000
N2   N   0.777646260727505   0.388795674924971   0.124777381923264   1.0000000
N2   N   0.277680072954113   0.555503423785815   0.624727755100205   1.0000000
N2   N   0.110943449280785   0.055475803667300   0.624893228387043   1.0000000
N2   N   0.610993981539317   0.555562040655329   0.625172198430316   1.0000000
N2   N   0.444384786495153   0.055510137138315   0.625002415053747   1.0000000
N2   N   0.944310661551837   0.555481415990325   0.625125612110329   1.0000000
N2   N   0.110997791466037   0.555489583917421   0.124942788851862   1.0000000
N2   N   0.777672845131797   0.055503089232566   0.625246225735289   1.0000000
N2   N   0.277680072954113   0.055509982501632   0.125272244899791   1.0000000
N2   N   0.444358499610649   0.555538971936240   0.125306892165565   1.0000000
N2   N   0.777630029782937   0.555481681558143   0.124990649948871   1.0000000
N2   N   0.611041365550876   0.055497100419616   0.124783002837365   1.0000000
N2   N   0.444358499610649   0.555538971936240   0.624693107834438   1.0000000
N2   N   0.944287444335106   0.055483675269096   0.124840481855809   1.0000000
N2   N   0.277703620206982   0.722182066859764   0.625054600449439   1.0000000
N2   N   0.110897032961634   0.222115183147482   0.624828179404197   1.0000000
N2   N   0.444358499610649   0.222152861007742   0.624693107834438   1.0000000
N2   N   0.611027938010974   0.722234892276356   0.625247339822368   1.0000000
N2   N   0.944310661551837   0.722162578894843   0.625125612110329   1.0000000
N2   N   0.777670471519838   0.222138184772202   0.625269383064568   1.0000000
N2   N   0.111005834130838   0.722169583732086   0.124884726364694   1.0000000
N2   N   0.444384786495153   0.722207982690169   0.124997584946254   1.0000000
N2   N   0.277537057414760   0.222098160106992   0.125542704358879   1.0000000
N2   N   0.777646260727505   0.722183919135866   0.124777381923264   1.0000000
N2   N   0.611027938010974   0.222126379067943   0.124752660177633   1.0000000
N2   N   0.944287444335106   0.222137102399348   0.124840481855809   1.0000000
N2   N   0.110943449280785   0.388800978946813   0.624893228387043   1.0000000
N2   N   0.277703620206982   0.888854886680537   0.625054600449439   1.0000000
N2   N   0.611041365550876   0.888877598464590   0.625216997162637   1.0000000
N2   N   0.444093277532935   0.388713305433131   0.625666932823454   1.0000000
N2   N   0.944306475404439   0.888833466490755   0.625160387164268   1.0000000
N2   N   0.110997791466037   0.888841540881940   0.124942788851862   1.0000000
N2   N   0.777646260727505   0.388795674924971   0.625222618076738   1.0000000
N2   N   0.444387111596150   0.888860222464741   0.124879058574578   1.0000000
N2   N   0.277537057414760   0.388772230641095   0.125542704358879   1.0000000
N2   N   0.277680072954113   0.555503423785815   0.125272244899791   1.0000000
N2   N   0.610993981539317   0.388765274217316   0.124827801569684   1.0000000
N2   N   0.777670471519838   0.888865620080962   0.124730616935435   1.0000000
N2   N   0.944306475404439   0.388806342247012   0.124839612835728   1.0000000
N2   N   0.110997791466037   0.555489583917421   0.625057211148134   1.0000000
N2   N   0.277680072954113   0.055509982501632   0.624727755100205   1.0000000
N2   N   0.777630029782937   0.555481681558143   0.625009350051130   1.0000000
N2   N   0.611041365550876   0.055497100419616   0.625216997162637   1.0000000
N2   N   0.944287444335106   0.055483675269096   0.625159518144193   1.0000000
N2   N   0.056651006586417   0.111559161271016   0.375000000000000   1.0000000
N2   N   0.557248631302112   0.620006596515302   0.375000000000000   1.0000000
N2   N   0.388005969427127   0.104377319591436   0.375000000000000   1.0000000
N2   N   0.889120257099569   0.611226795216455   0.375000000000000   1.0000000
N2   N   0.723900038072257   0.111076399583633   0.375000000000000   1.0000000
N2   N   0.055555771819077   0.777774632498298   0.875000000000000   1.0000000
N2   N   0.388878996020776   0.777775353193061   0.875000000000000   1.0000000
N2   N   0.222224703969465   0.277779018651397   0.875000000000000   1.0000000
N2   N   0.722222160475656   0.777769259788689   0.875000000000000   1.0000000
N2   N   0.555549647934942   0.277779232743839   0.875000000000000   1.0000000
N2   N   0.888894203607379   0.277788260691907   0.875000000000000   1.0000000
N2   N   0.221256926671740   0.777295130002538   0.375000000000000   1.0000000
N2   N   0.056651006586417   0.278425178648738   0.375000000000000   1.0000000
N2   N   0.384002448262604   0.263320007405358   0.375000000000000   1.0000000
N2   N   0.556323088272289   0.781938247536161   0.375000000000000   1.0000000
N2   N   0.890893510645569   0.779693182477963   0.375000000000000   1.0000000
N2   N   0.724503886489126   0.276558357596705   0.375000000000000   1.0000000
N2   N   0.055554832254749   0.944435890330892   0.875000000000000   1.0000000
N2   N   0.388878996020776   0.944436976161049   0.875000000000000   1.0000000
N2   N   0.222218503841098   0.444450832556995   0.875000000000000   1.0000000
N2   N   0.555556804293657   0.444445068813493   0.875000000000000   1.0000000
N2   N   0.722219282636715   0.944439658197247   0.875000000000000   1.0000000
N2   N   0.888895777286441   0.444455481042561   0.875000000000000   1.0000000
N2   N   0.055420506303766   0.445153473075702   0.375000000000000   1.0000000
N2   N   0.221122463000015   0.942139293544429   0.375000000000000   1.0000000
N2   N   0.556209010004958   0.944771171669141   0.375000000000000   1.0000000
N2   N   0.384002448262604   0.454015774190583   0.375000000000000   1.0000000
N2   N   0.890611220901149   0.945977870641637   0.375000000000000   1.0000000
N2   N   0.726879757324627   0.443786877783916   0.375000000000000   1.0000000
N2   N   0.222212681096280   0.611114237436371   0.875000000000000   1.0000000
N2   N   0.055560371933341   0.111108544171985   0.875000000000000   1.0000000
N2   N   0.555549647934942   0.611103748524437   0.875000000000000   1.0000000
N2   N   0.388878134216328   0.111100783078027   0.875000000000000   1.0000000
N2   N   0.888900634334456   0.611116983833903   0.875000000000000   1.0000000
N2   N   0.055098812211444   0.611275044154581   0.375000000000000   1.0000000
N2   N   0.722219282636715   0.111112957772804   0.875000000000000   1.0000000
N2   N   0.219745380323630   0.106968906152073   0.375000000000000   1.0000000
N2   N   0.388005969427127   0.616961983169033   0.375000000000000   1.0000000
N2   N   0.726879757324627   0.616426212874044   0.375000000000000   1.0000000
N2   N   0.556323088272289   0.107718174069466   0.375000000000000   1.0000000
N2   N   0.388878134216328   0.611110684471647   0.875000000000000   1.0000000
N2   N   0.890577493972933   0.111955413653137   0.375000000000000   1.0000000
N2   N   0.222213746193696   0.777773539763510   0.875000000000000   1.0000000
N2   N   0.055560371933341   0.277785161094691   0.875000000000000   1.0000000
N2   N   0.388884015485171   0.277768724643398   0.875000000000000   1.0000000
N2   N   0.555545752145135   0.777770288143291   0.875000000000000   1.0000000
N2   N   0.888895777286441   0.777773629577219   0.875000000000000   1.0000000
N2   N   0.722222160475656   0.277786234020298   0.875000000000000   1.0000000
N2   N   0.055098812211444   0.777157101390195   0.375000000000000   1.0000000
N2   N   0.388279824203849   0.779408959349219   0.375000000000000   1.0000000
N2   N   0.223364824169235   0.278349078751283   0.375000000000000   1.0000000
N2   N   0.724503886489126   0.781278862225755   0.375000000000000   1.0000000
N2   N   0.557248631302112   0.270575368120142   0.375000000000000   1.0000000
N2   N   0.890611220901149   0.277966683592850   0.375000000000000   1.0000000
N2   N   0.055554832254749   0.444452275257185   0.875000000000000   1.0000000
N2   N   0.222212681096280   0.944431776993238   0.875000000000000   1.0000000
N2   N   0.555544793937154   0.944439063635242   0.875000000000000   1.0000000
N2   N   0.388884015485171   0.444448624175107   0.875000000000000   1.0000000
N2   N   0.888894203607379   0.944439276248816   0.875000000000000   1.0000000
N2   N   0.055420506303766   0.943600366561395   0.375000000000000   1.0000000
N2   N   0.722229133908663   0.444454226347700   0.875000000000000   1.0000000
N2   N   0.388279824203849   0.942204198187964   0.375000000000000   1.0000000
N2   N   0.219745380323630   0.446109807504893   0.375000000000000   1.0000000
N2   N   0.221122463000015   0.612316502788917   0.375000000000000   1.0000000
N2   N   0.723900038072257   0.946156971821965   0.375000000000000   1.0000000
N2   N   0.890893510645569   0.444533661500941   0.375000000000000   1.0000000
N2   N   0.055555771819077   0.611114472654117   0.875000000000000   1.0000000
N2   N   0.222218503841098   0.111101004617439   0.875000000000000   1.0000000
N2   N   0.722229133908663   0.611108240894301   0.875000000000000   1.0000000
N2   N   0.555545752145135   0.111108797335180   0.875000000000000   1.0000000
N2   N   0.888894506479542   0.111113919906439   0.875000000000000   1.0000000
B2   B   0.111191874261502   0.054675312918524   0.375000000000000   1.0000000
B2   B   0.616758756940490   0.569083102265092   0.375000000000000   1.0000000
B2   B   0.444512930237246   0.052468449245482   0.375000000000000   1.0000000
B2   B   0.944459203681554   0.555518184632648   0.375000000000000   1.0000000
B2   B   0.779856357841959   0.056594845587647   0.375000000000000   1.0000000
B2   B   0.111115819457987   0.722224576395654   0.875000000000000   1.0000000
B2   B   0.444411200639149   0.722132272853417   0.875000000000000   1.0000000
B2   B   0.277872430102351   0.222305766973932   0.875000000000000   1.0000000
B2   B   0.777718423475882   0.722139919701226   0.875000000000000   1.0000000
B2   B   0.611041675857726   0.222278438778475   0.875000000000000   1.0000000
B2   B   0.944510412195711   0.222260908120049   0.875000000000000   1.0000000
B2   B   0.277255071809314   0.722679352733385   0.375000000000000   1.0000000
B2   B   0.114439917596549   0.223886625464939   0.375000000000000   1.0000000
B2   B   0.441491225769489   0.216254049978754   0.375000000000000   1.0000000
B2   B   0.612465929030388   0.727607322311385   0.375000000000000   1.0000000
B2   B   0.944459203681554   0.722274352382244   0.375000000000000   1.0000000
B2   B   0.779826732226549   0.221987563564649   0.375000000000000   1.0000000
B2   B   0.111137220826458   0.888922401121570   0.875000000000000   1.0000000
B2   B   0.444415012848546   0.888874173090940   0.875000000000000   1.0000000
B2   B   0.277872430102351   0.388899996461747   0.875000000000000   1.0000000
B2   B   0.611009510353172   0.388903997805213   0.875000000000000   1.0000000
B2   B   0.777762480035030   0.888838453983109   0.875000000000000   1.0000000
B2   B   0.944463344114557   0.388911962764780   0.875000000000000   1.0000000
B2   B   0.111191874261502   0.389849894676305   0.375000000000000   1.0000000
B2   B   0.277255071809314   0.887909052409259   0.375000000000000   1.0000000
B2   B   0.612541466382068   0.891069277027721   0.375000000000000   1.0000000
B2   B   0.945651803446422   0.889990523405886   0.375000000000000   1.0000000
B2   B   0.780651741301364   0.387999888834180   0.375000000000000   1.0000000
B2   B   0.277810615308845   0.555509698956371   0.875000000000000   1.0000000
B2   B   0.111197828292088   0.055621694798181   0.875000000000000   1.0000000
B2   B   0.611009510353172   0.555438845881292   0.875000000000000   1.0000000
B2   B   0.444411200639149   0.055612261119067   0.875000000000000   1.0000000
B2   B   0.944426301264360   0.555553422554909   0.875000000000000   1.0000000
B2   B   0.110764575404318   0.555982547628954   0.375000000000000   1.0000000
B2   B   0.777783311226958   0.055558322280145   0.875000000000000   1.0000000
B2   B   0.277216734737296   0.053564982971604   0.375000000000000   1.0000000
B2   B   0.441491225769489   0.558570509124072   0.375000000000000   1.0000000
B2   B   0.777647269034581   0.555490301183955   0.375000000000000   1.0000000
B2   B   0.612541466382068   0.054805522687673   0.375000000000000   1.0000000
B2   B   0.444413975645063   0.555445427430996   0.875000000000000   1.0000000
B2   B   0.946696518918237   0.057020812224225   0.375000000000000   1.0000000
B2   B   0.277778228268283   0.722195151908281   0.875000000000000   1.0000000
B2   B   0.111236665017162   0.222284999175245   0.875000000000000   1.0000000
B2   B   0.444413975645063   0.222301881547405   0.875000000000000   1.0000000
B2   B   0.611041675857726   0.722096570412581   0.875000000000000   1.0000000
B2   B   0.944426301264360   0.722206212042784   0.875000000000000   1.0000000
B2   B   0.777762480035030   0.222257359385250   0.875000000000000   1.0000000
B2   B   0.110602794062671   0.721968063698001   0.375000000000000   1.0000000
B2   B   0.444512930237246   0.725377814325101   0.375000000000000   1.0000000
B2   B   0.279860407835976   0.220530315005223   0.375000000000000   1.0000000
B2   B   0.780651741301364   0.725985185800516   0.375000000000000   1.0000000
B2   B   0.612465929030388   0.218191940052332   0.375000000000000   1.0000000
B2   B   0.946696518918237   0.223009040027349   0.375000000000000   1.0000000
B2   B   0.111197828292088   0.388909466827236   0.875000000000000   1.0000000
B2   B   0.277778228268283   0.888916409693323   0.875000000000000   1.0000000
B2   B   0.611071262447027   0.888831796216527   0.875000000000000   1.0000000
B2   B   0.444434976732734   0.388884155033031   0.875000000000000   1.0000000
B2   B   0.944463344114557   0.888884714683098   0.875000000000000   1.0000000
B2   B   0.110764575404318   0.888115361108690   0.375000000000000   1.0000000
B2   B   0.777718423475882   0.388911837107982   0.875000000000000   1.0000000
B2   B   0.444758438457778   0.889045885895556   0.375000000000000   1.0000000
B2   B   0.279860407835976   0.392663426164078   0.375000000000000   1.0000000
B2   B   0.277216734737296   0.556985085099031   0.375000000000000   1.0000000
B2   B   0.616758756940490   0.381008988008732   0.375000000000000   1.0000000
B2   B   0.779826732226549   0.891172501995227   0.375000000000000   1.0000000
B2   B   0.945651803446422   0.388994613373860   0.375000000000000   1.0000000
B2   B   0.111137220826458   0.555548153038212   0.875000000000000   1.0000000
B2   B   0.277810615308845   0.055634249685810   0.875000000000000   1.0000000
B2   B   0.777699981852907   0.555516657593118   0.875000000000000   1.0000000
B2   B   0.611071262447027   0.055572799563825   0.875000000000000   1.0000000
B2   B   0.944510412195711   0.055582837408997   0.875000000000000   1.0000000
B2   B   0.055576994732719   0.111192467077718   0.125590783919906   1.0000000
B2   B   0.555254056833366   0.610770235541860   0.125913460374585   1.0000000
B2   B   0.388908560345857   0.111420793270782   0.126078083956789   1.0000000
B2   B   0.888540317371152   0.610936825352248   0.125247190422739   1.0000000
B2   B   0.722100476965049   0.111062005643426   0.125111140360646   1.0000000
B2   B   0.055438867425854   0.777779284556572   0.624790768136985   1.0000000
B2   B   0.388889384112466   0.777671692619092   0.624642618226242   1.0000000
B2   B   0.222333730489278   0.277833531911306   0.623344774454121   1.0000000
B2   B   0.721959790568968   0.777610380672446   0.624822069850216   1.0000000
B2   B   0.555254056833366   0.277817154624843   0.624086539625417   1.0000000
B2   B   0.888768262226682   0.277677165942361   0.624830953453498   1.0000000
B2   B   0.222214750715048   0.777774042024194   0.125250706373205   1.0000000
B2   B   0.055576994732719   0.277717860988334   0.125590783919906   1.0000000
B2   B   0.388818318603736   0.278001987181891   0.127471049136131   1.0000000
B2   B   0.555438298695968   0.777605379694371   0.125338938808545   1.0000000
B2   B   0.888633040110609   0.777682596934804   0.125164506574608   1.0000000
B2   B   0.721959790568968   0.277682743229859   0.125177930149781   1.0000000
B2   B   0.055516923747215   0.944556163028262   0.624624116449435   1.0000000
B2   B   0.388889384112466   0.944551024826714   0.624642618226242   1.0000000
B2   B   0.222316544657185   0.444242633498669   0.623769094876192   1.0000000
B2   B   0.554905138485559   0.444119235909444   0.622223777394094   1.0000000
B2   B   0.722100476965049   0.944371804654962   0.624888859639353   1.0000000
B2   B   0.888633040110609   0.444283776509140   0.624835493425395   1.0000000
B2   B   0.055516923747215   0.444294094052286   0.125375883550569   1.0000000
B2   B   0.222258140072754   0.944651579956842   0.125496400667676   1.0000000
B2   B   0.555487943086048   0.944410638209688   0.125195185457905   1.0000000
B2   B   0.388818318603736   0.444149664755183   0.127471049136131   1.0000000
B2   B   0.888768262226682   0.944424429617658   0.125169046546504   1.0000000
B2   B   0.721679334209878   0.444203154342178   0.125479730110440   1.0000000
B2   B   0.222258140072754   0.610939893449250   0.624503599332327   1.0000000
B2   B   0.055576994732719   0.111192467077718   0.624409216080094   1.0000000
B2   B   0.555254056833366   0.610770235541860   0.624086539625417   1.0000000
B2   B   0.388908560345857   0.111420793270782   0.623921916043211   1.0000000
B2   B   0.888540317371152   0.610936825352248   0.624752809577262   1.0000000
B2   B   0.055438867425854   0.610992916202618   0.125209231863020   1.0000000
B2   B   0.722100476965049   0.111062005643426   0.624888859639353   1.0000000
B2   B   0.222316544657185   0.111407244491854   0.126230905123808   1.0000000
B2   B   0.388908560345857   0.610821100408415   0.126078083956789   1.0000000
B2   B   0.721679334209878   0.610809513201035   0.125479730110440   1.0000000
B2   B   0.555438298695968   0.111166252334935   0.125338938808545   1.0000000
B2   B   0.388908560345857   0.610821100408415   0.623921916043211   1.0000000
B2   B   0.888822302305538   0.111077817819441   0.125188552245069   1.0000000
B2   B   0.222214750715048   0.777774042024194   0.624749293626798   1.0000000
B2   B   0.055576994732719   0.277717860988334   0.624409216080094   1.0000000
B2   B   0.388818318603736   0.278001987181891   0.622528950863867   1.0000000
B2   B   0.555438298695968   0.777605379694371   0.624661061191458   1.0000000
B2   B   0.888633040110609   0.777682596934804   0.624835493425395   1.0000000
B2   B   0.721959790568968   0.277682743229859   0.624822069850216   1.0000000
B2   B   0.055438867425854   0.777779284556572   0.125209231863020   1.0000000
B2   B   0.388889384112466   0.777671692619092   0.125357381773755   1.0000000
B2   B   0.222333730489278   0.277833531911306   0.126655225545881   1.0000000
B2   B   0.721959790568968   0.777610380672446   0.125177930149781   1.0000000
B2   B   0.555254056833366   0.277817154624843   0.125913460374585   1.0000000
B2   B   0.888768262226682   0.277677165942361   0.125169046546504   1.0000000
B2   B   0.055516923747215   0.444294094052286   0.624624116449435   1.0000000
B2   B   0.222258140072754   0.944651579956842   0.624503599332327   1.0000000
B2   B   0.555487943086048   0.944410638209688   0.624804814542093   1.0000000
B2   B   0.388818318603736   0.444149664755183   0.622528950863867   1.0000000
B2   B   0.888768262226682   0.944424429617658   0.624830953453498   1.0000000
B2   B   0.055516923747215   0.944556163028262   0.125375883550569   1.0000000
B2   B   0.721679334209878   0.444203154342178   0.624520269889564   1.0000000
B2   B   0.388889384112466   0.944551024826714   0.125357381773755   1.0000000
B2   B   0.222316544657185   0.444242633498669   0.126230905123808   1.0000000
B2   B   0.222258140072754   0.610939893449250   0.125496400667676   1.0000000
B2   B   0.554905138485559   0.444119235909444   0.127776222605907   1.0000000
B2   B   0.722100476965049   0.944371804654962   0.125111140360646   1.0000000
B2   B   0.888633040110609   0.444283776509140   0.125164506574608   1.0000000
B2   B   0.055438867425854   0.610992916202618   0.624790768136985   1.0000000
B2   B   0.222316544657185   0.111407244491854   0.623769094876192   1.0000000
B2   B   0.721679334209878   0.610809513201035   0.624520269889564   1.0000000
B2   B   0.555438298695968   0.111166252334935   0.624661061191458   1.0000000
B2   B   0.888822302305538   0.111077817819441   0.624811447754933   1.0000000


