data_1
_audit_creation_method   'vasp2cif'
_cell_length_a    14.93631414619966
_cell_length_b    14.936314146199727
_cell_length_c    13.341276283792837
_cell_angle_alpha    90.0
_cell_angle_beta    90.0
_cell_angle_gamma    119.99999999999984

_symmetry_space_group_name_H-M    'P 1'
loop_
_atom_site_label
_atom_site_type_symbol
_atom_site_fract_x
_atom_site_fract_y
_atom_site_fract_z
_atom_site_occupancy
Al2   Al   0.466781507045450   0.400057420189389   0.375000000000000   1.0000000
Al2   Al   0.635749231037072   0.484541282185200   0.375000000000000   1.0000000
N2   N   0.111137436757301   0.055555558284061   0.124983975842314   1.0000000
N2   N   0.611216766693352   0.555678163591251   0.123755703423889   1.0000000
N2   N   0.444461922092827   0.055523090288635   0.125039022655244   1.0000000
N2   N   0.944449853103222   0.555562825859536   0.125414812532426   1.0000000
N2   N   0.777808123273141   0.055570728303239   0.125042579979823   1.0000000
N2   N   0.111119919730717   0.722226626532024   0.624802189453982   1.0000000
N2   N   0.444461922092827   0.722272165137530   0.624960977344756   1.0000000
N2   N   0.277815809772717   0.222218433521392   0.624913227934622   1.0000000
N2   N   0.777815009730482   0.722284555537640   0.625090691446040   1.0000000
N2   N   0.611130599208957   0.222179934059174   0.625106459552740   1.0000000
N2   N   0.944479442640136   0.222239383735445   0.624941528784204   1.0000000
N2   N   0.277788399845262   0.722240425057641   0.125131486537425   1.0000000
N2   N   0.111159011662410   0.222246172497869   0.124981103837458   1.0000000
N2   N   0.444495223007709   0.222186818533447   0.124878421838464   1.0000000
N2   N   0.611130599208957   0.722283998483116   0.124893540447257   1.0000000
N2   N   0.944449853103222   0.722220360577018   0.125414812532426   1.0000000
N2   N   0.777800659707478   0.222208924479265   0.125076093095002   1.0000000
N2   N   0.111123331995124   0.888883725701868   0.624881675794663   1.0000000
N2   N   0.444456545418994   0.888894939376161   0.624866465378524   1.0000000
N2   N   0.277815809772717   0.388930709584654   0.624913227934622   1.0000000
N2   N   0.611216766693352   0.388871936435432   0.626244296576108   1.0000000
N2   N   0.777800659707478   0.888925068561537   0.624923906905000   1.0000000
N2   N   0.944471215442674   0.388898565357749   0.624833730161727   1.0000000
N2   N   0.111137436757301   0.388915211806569   0.124983975842314   1.0000000
N2   N   0.277788399845262   0.888881308120948   0.125131486537425   1.0000000
N2   N   0.611130862944164   0.888924344584911   0.125074537911863   1.0000000
N2   N   0.444515367419491   0.388924350376413   0.127426384536084   1.0000000
N2   N   0.944471215442674   0.888905983418254   0.125166269838271   1.0000000
N2   N   0.777815009730482   0.388863787526175   0.124909308553957   1.0000000
N2   N   0.277796881834082   0.555594231128972   0.624987401790890   1.0000000
N2   N   0.111137436757301   0.055555558284061   0.625016024157683   1.0000000
N2   N   0.611216766693352   0.555678163591251   0.626244296576108   1.0000000
N2   N   0.444461922092827   0.055523090288635   0.624960977344756   1.0000000
N2   N   0.944449853103222   0.555562825859536   0.624585187467573   1.0000000
N2   N   0.111123331995124   0.555572939626585   0.125118324205331   1.0000000
N2   N   0.777808123273141   0.055570728303239   0.624957420020176   1.0000000
N2   N   0.277796881834082   0.055535984038447   0.125012598209113   1.0000000
N2   N   0.444495223007709   0.555641737807599   0.124878421838464   1.0000000
N2   N   0.777746112734123   0.555539723033728   0.125764099149895   1.0000000
N2   N   0.611130862944164   0.055539851692576   0.125074537911863   1.0000000
N2   N   0.444495223007709   0.555641737807599   0.625121578161540   1.0000000
N2   N   0.944479442640136   0.055573392238029   0.125058471215799   1.0000000
N2   N   0.277788399845262   0.722240425057641   0.624868513462572   1.0000000
N2   N   0.111159011662410   0.222246172497869   0.625018896162543   1.0000000
N2   N   0.444495223007709   0.222186818533447   0.625121578161540   1.0000000
N2   N   0.611130599208957   0.722283998483116   0.625106459552740   1.0000000
N2   N   0.944449853103222   0.722220360577018   0.624585187467573   1.0000000
N2   N   0.777800659707478   0.222208924479265   0.624923906905000   1.0000000
N2   N   0.111119919730717   0.722226626532024   0.125197810546013   1.0000000
N2   N   0.444461922092827   0.722272165137530   0.125039022655244   1.0000000
N2   N   0.277815809772717   0.222218433521392   0.125086772065383   1.0000000
N2   N   0.777815009730482   0.722284555537640   0.124909308553957   1.0000000
N2   N   0.611130599208957   0.222179934059174   0.124893540447257   1.0000000
N2   N   0.944479442640136   0.222239383735445   0.125058471215799   1.0000000
N2   N   0.111137436757301   0.388915211806569   0.625016024157683   1.0000000
N2   N   0.277788399845262   0.888881308120948   0.624868513462572   1.0000000
N2   N   0.611130862944164   0.888924344584911   0.624925462088136   1.0000000
N2   N   0.444515367419491   0.388924350376413   0.622573615463918   1.0000000
N2   N   0.944471215442674   0.888905983418254   0.624833730161727   1.0000000
N2   N   0.111123331995124   0.888883725701868   0.125118324205331   1.0000000
N2   N   0.777815009730482   0.388863787526175   0.625090691446040   1.0000000
N2   N   0.444456545418994   0.888894939376161   0.125133534621477   1.0000000
N2   N   0.277815809772717   0.388930709584654   0.125086772065383   1.0000000
N2   N   0.277796881834082   0.555594231128972   0.125012598209113   1.0000000
N2   N   0.611216766693352   0.388871936435432   0.123755703423889   1.0000000
N2   N   0.777800659707478   0.888925068561537   0.125076093095002   1.0000000
N2   N   0.944471215442674   0.388898565357749   0.125166269838271   1.0000000
N2   N   0.111123331995124   0.555572939626585   0.624881675794663   1.0000000
N2   N   0.277796881834082   0.055535984038447   0.624987401790890   1.0000000
N2   N   0.777746112734123   0.555539723033728   0.624235900850104   1.0000000
N2   N   0.611130862944164   0.055539851692576   0.624925462088136   1.0000000
N2   N   0.944479442640136   0.055573392238029   0.624941528784204   1.0000000
N2   N   0.056639610483922   0.112026028213920   0.375000000000000   1.0000000
N2   N   0.547783056220602   0.627950951151241   0.375000000000000   1.0000000
N2   N   0.382844094275492   0.099523641934469   0.375000000000000   1.0000000
N2   N   0.891872683347528   0.612603008340433   0.375000000000000   1.0000000
N2   N   0.722728341845341   0.109725794240262   0.375000000000000   1.0000000
N2   N   0.055546703839816   0.777776047093415   0.875000000000000   1.0000000
N2   N   0.388890902315410   0.777776916583771   0.875000000000000   1.0000000
N2   N   0.222218342494903   0.277775837914119   0.875000000000000   1.0000000
N2   N   0.722225623707150   0.777777291262405   0.875000000000000   1.0000000
N2   N   0.555554935889642   0.277779884014936   0.875000000000000   1.0000000
N2   N   0.888891039297579   0.277778565443232   0.875000000000000   1.0000000
N2   N   0.218448232106627   0.775890782719983   0.375000000000000   1.0000000
N2   N   0.056639610483922   0.277946915603337   0.375000000000000   1.0000000
N2   N   0.386580461420798   0.265343013921380   0.375000000000000   1.0000000
N2   N   0.553399562842026   0.784826862198344   0.375000000000000   1.0000000
N2   N   0.888985025513025   0.779600098510514   0.375000000000000   1.0000000
N2   N   0.722076466873556   0.273535214105880   0.375000000000000   1.0000000
N2   N   0.055551269156801   0.944444903434475   0.875000000000000   1.0000000
N2   N   0.388890902315410   0.944447319064970   0.875000000000000   1.0000000
N2   N   0.222219102696340   0.444439220760138   0.875000000000000   1.0000000
N2   N   0.555543143193816   0.444438238263572   0.875000000000000   1.0000000
N2   N   0.722224900689020   0.944445028945503   0.875000000000000   1.0000000
N2   N   0.888889363736296   0.444442963789326   0.875000000000000   1.0000000
N2   N   0.054398164937630   0.443722529502343   0.375000000000000   1.0000000
N2   N   0.218151808022226   0.940344978871424   0.375000000000000   1.0000000
N2   N   0.553782634572836   0.943557983953081   0.375000000000000   1.0000000
N2   N   0.386580461420798   0.454570780832751   0.375000000000000   1.0000000
N2   N   0.889625904764422   0.946229033690932   0.375000000000000   1.0000000
N2   N   0.724768037806682   0.440701590499282   0.375000000000000   1.0000000
N2   N   0.222217122267751   0.611105018619809   0.875000000000000   1.0000000
N2   N   0.055551375181265   0.111109265890885   0.875000000000000   1.0000000
N2   N   0.555554935889642   0.611108385208046   0.875000000000000   1.0000000
N2   N   0.388890065214335   0.111116933034259   0.875000000000000   1.0000000
N2   N   0.888882721881220   0.611108027607283   0.875000000000000   1.0000000
N2   N   0.053612922192054   0.609963880711902   0.375000000000000   1.0000000
N2   N   0.722224900689020   0.111113205076851   0.875000000000000   1.0000000
N2   N   0.220031675423904   0.107939779492361   0.375000000000000   1.0000000
N2   N   0.382844094275492   0.616653785674368   0.375000000000000   1.0000000
N2   N   0.724768037806682   0.617399780640731   0.375000000000000   1.0000000
N2   N   0.553399562842026   0.101906033977019   0.375000000000000   1.0000000
N2   N   0.388890065214335   0.611106465513417   0.875000000000000   1.0000000
N2   N   0.890163231118184   0.111748282225765   0.375000000000000   1.0000000
N2   N   0.222215785544374   0.777774559438852   0.875000000000000   1.0000000
N2   N   0.055551375181265   0.277775442623715   0.875000000000000   1.0000000
N2   N   0.388892113882018   0.277787772561869   0.875000000000000   1.0000000
N2   N   0.555558829766960   0.777776990465248   0.875000000000000   1.0000000
N2   N   0.888889363736296   0.777779733280306   0.875000000000000   1.0000000
N2   N   0.722225623707150   0.277781665778077   0.875000000000000   1.0000000
N2   N   0.053612922192054   0.776982374813485   0.375000000000000   1.0000000
N2   N   0.385089241567394   0.778543119725422   0.375000000000000   1.0000000
N2   N   0.224668555116608   0.279000944224972   0.375000000000000   1.0000000
N2   N   0.722076466873556   0.781874586101012   0.375000000000000   1.0000000
N2   N   0.547783056220602   0.253165438402693   0.375000000000000   1.0000000
N2   N   0.889625904764422   0.276730204406825   0.375000000000000   1.0000000
N2   N   0.055551269156801   0.444439699055661   0.875000000000000   1.0000000
N2   N   0.222217122267751   0.944445436981276   0.875000000000000   1.0000000
N2   N   0.555557946558097   0.944445639945713   0.875000000000000   1.0000000
N2   N   0.388892113882018   0.444437674653483   0.875000000000000   1.0000000
N2   N   0.888891039297579   0.944445807187684   0.875000000000000   1.0000000
N2   N   0.054398164937630   0.944008968768616   0.375000000000000   1.0000000
N2   N   0.722225032605117   0.444449077990655   0.875000000000000   1.0000000
N2   N   0.385089241567394   0.939879455175303   0.375000000000000   1.0000000
N2   N   0.220031675423904   0.445425229264879   0.375000000000000   1.0000000
N2   N   0.218151808022226   0.611140162484146   0.375000000000000   1.0000000
N2   N   0.722728341845341   0.946335880938415   0.375000000000000   1.0000000
N2   N   0.888985025513025   0.442718260335850   0.375000000000000   1.0000000
N2   N   0.055546703839816   0.611103990079736   0.875000000000000   1.0000000
N2   N   0.222219102696340   0.111113215269536   0.875000000000000   1.0000000
N2   N   0.722225032605117   0.611109287947801   0.875000000000000   1.0000000
N2   N   0.555558829766960   0.111115172635043   0.875000000000000   1.0000000
N2   N   0.888889414982795   0.111111374158070   0.875000000000000   1.0000000
B2   B   0.110200686131067   0.054882435550371   0.375000000000000   1.0000000
B2   B   0.597224916514566   0.576142801306650   0.375000000000000   1.0000000
B2   B   0.441527582988083   0.048485308064969   0.375000000000000   1.0000000
B2   B   0.944785933250003   0.553777376351630   0.375000000000000   1.0000000
B2   B   0.779531276401208   0.056432304867273   0.375000000000000   1.0000000
B2   B   0.111132353680475   0.722232843506906   0.875000000000000   1.0000000
B2   B   0.444428381159190   0.722222914254407   0.875000000000000   1.0000000
B2   B   0.277725823001759   0.222200337425177   0.875000000000000   1.0000000
B2   B   0.777806176644852   0.722281303923423   0.875000000000000   1.0000000
B2   B   0.611105096604031   0.222184994805072   0.875000000000000   1.0000000
B2   B   0.944463668935080   0.222215026984687   0.875000000000000   1.0000000
B2   B   0.274244066491661   0.721617889008155   0.375000000000000   1.0000000
B2   B   0.113437676921191   0.223385505127259   0.375000000000000   1.0000000
B2   B   0.436252174168781   0.206810188660085   0.375000000000000   1.0000000
B2   B   0.611071733519682   0.735244013933454   0.375000000000000   1.0000000
B2   B   0.944785933250003   0.724341890231702   0.375000000000000   1.0000000
B2   B   0.779177940673149   0.219843147232958   0.375000000000000   1.0000000
B2   B   0.111125751691730   0.888919438830315   0.875000000000000   1.0000000
B2   B   0.444440664810898   0.888886999072115   0.875000000000000   1.0000000
B2   B   0.277725823001759   0.388858818909910   0.875000000000000   1.0000000
B2   B   0.611080081293571   0.388851227424162   0.875000000000000   1.0000000
B2   B   0.777803671951190   0.888937575663962   0.875000000000000   1.0000000
B2   B   0.944477109475508   0.388864976586527   0.875000000000000   1.0000000
B2   B   0.110200686131067   0.388651583914023   0.375000000000000   1.0000000
B2   B   0.274244066491661   0.885959510816837   0.375000000000000   1.0000000
B2   B   0.611540039524650   0.893058068429803   0.375000000000000   1.0000000
B2   B   0.944685873681856   0.890833257395043   0.375000000000000   1.0000000
B2   B   0.779687716078477   0.384182106942876   0.375000000000000   1.0000000
B2   B   0.277754892500667   0.555536819793050   0.875000000000000   1.0000000
B2   B   0.111108871850012   0.055574476312386   0.875000000000000   1.0000000
B2   B   0.611080081293571   0.555562187202743   0.875000000000000   1.0000000
B2   B   0.444428381159190   0.055538800238119   0.875000000000000   1.0000000
B2   B   0.944485607865939   0.555551299148590   0.875000000000000   1.0000000
B2   B   0.108579629800607   0.554411425532294   0.375000000000000   1.0000000
B2   B   0.777799968475889   0.055566650904613   0.875000000000000   1.0000000
B2   B   0.272957617980406   0.049915958376703   0.375000000000000   1.0000000
B2   B   0.436252174168782   0.562775318842031   0.375000000000000   1.0000000
B2   B   0.786579160088698   0.559956246711018   0.375000000000000   1.0000000
B2   B   0.611540039524650   0.051815304428179   0.375000000000000   1.0000000
B2   B   0.444398808442623   0.555546659851457   0.875000000000000   1.0000000
B2   B   0.946098242912650   0.057213801262823   0.375000000000000   1.0000000
B2   B   0.277775983604755   0.722216639202484   0.875000000000000   1.0000000
B2   B   0.111095656959758   0.222214495146543   0.875000000000000   1.0000000
B2   B   0.444398808442623   0.222185481924501   0.875000000000000   1.0000000
B2   B   0.611105096604031   0.722253435132287   0.875000000000000   1.0000000
B2   B   0.944485607865939   0.722267642050678   0.875000000000000   1.0000000
B2   B   0.777803671951190   0.222199429620550   0.875000000000000   1.0000000
B2   B   0.108461168909452   0.720897251121392   0.375000000000000   1.0000000
B2   B   0.441527582988083   0.726375608256448   0.375000000000000   1.0000000
B2   B   0.277351143312976   0.219122479308017   0.375000000000000   1.0000000
B2   B   0.779687716078477   0.728838942468928   0.375000000000000   1.0000000
B2   B   0.611071733519682   0.209161052919559   0.375000000000000   1.0000000
B2   B   0.946098242912650   0.222217774983164   0.375000000000000   1.0000000
B2   B   0.111108871850012   0.388867728870955   0.875000000000000   1.0000000
B2   B   0.277775983604755   0.888892677735594   0.875000000000000   1.0000000
B2   B   0.611118694315528   0.888907524430489   0.875000000000000   1.0000000
B2   B   0.444375972607182   0.388854652970254   0.875000000000000   1.0000000
B2   B   0.944477109475508   0.888945466222310   0.875000000000000   1.0000000
B2   B   0.108579629800607   0.887501537601652   0.375000000000000   1.0000000
B2   B   0.777806176644852   0.388858206054761   0.875000000000000   1.0000000
B2   B   0.442354480495384   0.887843906914354   0.375000000000000   1.0000000
B2   B   0.277351143312976   0.391561997338288   0.375000000000000   1.0000000
B2   B   0.272957617980406   0.556374992937041   0.375000000000000   1.0000000
B2   B   0.597224916514566   0.354415448541244   0.375000000000000   1.0000000
B2   B   0.779177940673149   0.892668126773522   0.375000000000000   1.0000000
B2   B   0.944685873681856   0.387185949620145   0.375000000000000   1.0000000
B2   B   0.111125751691730   0.555539646194745   0.875000000000000   1.0000000
B2   B   0.277754892500667   0.055551406040953   0.875000000000000   1.0000000
B2   B   0.777801479217995   0.555567406275661   0.875000000000000   1.0000000
B2   B   0.611118694315528   0.055544503218371   0.875000000000000   1.0000000
B2   B   0.944463668935080   0.055581975283727   0.875000000000000   1.0000000
B2   B   0.055620005406350   0.111162343869852   0.124896772461043   1.0000000
B2   B   0.555441457852248   0.611269098145538   0.123986322626736   1.0000000
B2   B   0.388813826704166   0.110951094957255   0.124741599654550   1.0000000
B2   B   0.889144188365689   0.611238760849515   0.124954508490577   1.0000000
B2   B   0.722233802864442   0.111041893765704   0.124848752980907   1.0000000
B2   B   0.055730565199172   0.777888669912736   0.625068393443991   1.0000000
B2   B   0.388870976595414   0.777818543104349   0.625088598598425   1.0000000
B2   B   0.222214004875173   0.277773669104254   0.624979892965106   1.0000000
B2   B   0.722236047925954   0.777974264946583   0.625488098661807   1.0000000
B2   B   0.555441457852248   0.277505693040053   0.626013677373261   1.0000000
B2   B   0.888966313391135   0.277730427644239   0.625124228819247   1.0000000
B2   B   0.222301005259585   0.777817169296459   0.124939207906105   1.0000000
B2   B   0.055620005406350   0.277790994869833   0.124896772461043   1.0000000
B2   B   0.388699069206574   0.277482143798485   0.125642860087138   1.0000000
B2   B   0.555497538275058   0.777898615989556   0.124743269818897   1.0000000
B2   B   0.889056688822049   0.777976728087041   0.124770268387034   1.0000000
B2   B   0.722236047925954   0.277595116312709   0.124511901338192   1.0000000
B2   B   0.055660587951229   0.944540309986332   0.625101036752621   1.0000000
B2   B   0.388870976595414   0.944385766824402   0.625088598598425   1.0000000
B2   B   0.222218247874464   0.444473456161873   0.625118978798562   1.0000000
B2   B   0.555584959664346   0.444459146498837   0.625523503741253   1.0000000
B2   B   0.722233802864442   0.944525242432077   0.625151247019094   1.0000000
B2   B   0.889056688822049   0.444413294068350   0.625229731612969   1.0000000
B2   B   0.055660587951229   0.444453611298227   0.124898963247382   1.0000000
B2   B   0.222269602693323   0.944451744692917   0.124903611110666   1.0000000
B2   B   0.555527414755872   0.944430374044607   0.124893827549288   1.0000000
B2   B   0.388699069206574   0.444550258741428   0.125642860087138   1.0000000
B2   B   0.888966313391135   0.944569219080230   0.124875771180755   1.0000000
B2   B   0.722320848732049   0.444293046244976   0.123655627866911   1.0000000
B2   B   0.222269602693323   0.611151191333742   0.625096388889331   1.0000000
B2   B   0.055620005406350   0.111162343869852   0.625103227538961   1.0000000
B2   B   0.555441457852248   0.611269098145538   0.626013677373261   1.0000000
B2   B   0.388813826704166   0.110951094957255   0.625258400345449   1.0000000
B2   B   0.889144188365689   0.611238760849515   0.625045491509419   1.0000000
B2   B   0.055730565199172   0.611175228619775   0.124931606556011   1.0000000
B2   B   0.722233802864442   0.111041893765704   0.625151247019094   1.0000000
B2   B   0.222218247874464   0.111078125045926   0.124881021201439   1.0000000
B2   B   0.388813826704166   0.611196065080254   0.124741599654550   1.0000000
B2   B   0.722320848732049   0.611361135820415   0.123655627866911   1.0000000
B2   B   0.555497538275058   0.110932255618839   0.124743269818897   1.0000000
B2   B   0.388813826704166   0.611196065080254   0.625258400345449   1.0000000
B2   B   0.888947043718752   0.111140188526048   0.124895466066170   1.0000000
B2   B   0.222301005259585   0.777817169296459   0.625060792093898   1.0000000
B2   B   0.055620005406350   0.277790994869833   0.625103227538961   1.0000000
B2   B   0.388699069206574   0.277482143798485   0.624357139912860   1.0000000
B2   B   0.555497538275058   0.777898615989556   0.625256730181107   1.0000000
B2   B   0.889056688822049   0.777976728087041   0.625229731612969   1.0000000
B2   B   0.722236047925954   0.277595116312709   0.625488098661807   1.0000000
B2   B   0.055730565199172   0.777888669912736   0.124931606556011   1.0000000
B2   B   0.388870976595414   0.777818543104349   0.124911401401576   1.0000000
B2   B   0.222214004875173   0.277773669104254   0.125020107034895   1.0000000
B2   B   0.722236047925954   0.777974264946583   0.124511901338192   1.0000000
B2   B   0.555441457852248   0.277505693040053   0.123986322626736   1.0000000
B2   B   0.888966313391135   0.277730427644239   0.124875771180755   1.0000000
B2   B   0.055660587951229   0.444453611298227   0.625101036752621   1.0000000
B2   B   0.222269602693323   0.944451744692917   0.625096388889331   1.0000000
B2   B   0.555527414755872   0.944430374044607   0.625106172450715   1.0000000
B2   B   0.388699069206574   0.444550258741428   0.624357139912860   1.0000000
B2   B   0.888966313391135   0.944569219080230   0.625124228819247   1.0000000
B2   B   0.055660587951229   0.944540309986332   0.124898963247382   1.0000000
B2   B   0.722320848732049   0.444293046244976   0.626344372133088   1.0000000
B2   B   0.388870976595414   0.944385766824402   0.124911401401576   1.0000000
B2   B   0.222218247874464   0.444473456161873   0.124881021201439   1.0000000
B2   B   0.222269602693323   0.611151191333742   0.124903611110666   1.0000000
B2   B   0.555584959664346   0.444459146498837   0.124476496258749   1.0000000
B2   B   0.722233802864442   0.944525242432077   0.124848752980907   1.0000000
B2   B   0.889056688822049   0.444413294068350   0.124770268387034   1.0000000
B2   B   0.055730565199172   0.611175228619775   0.625068393443991   1.0000000
B2   B   0.222218247874464   0.111078125045926   0.625118978798562   1.0000000
B2   B   0.722320848732049   0.611361135820415   0.626344372133088   1.0000000
B2   B   0.555497538275058   0.110932255618839   0.625256730181107   1.0000000
B2   B   0.888947043718752   0.111140188526048   0.625104533933828   1.0000000


