data_1
_audit_creation_method   'vasp2cif'
_cell_length_a    14.93631414619966
_cell_length_b    14.936314146199727
_cell_length_c    13.341276283792837
_cell_angle_alpha    90.0
_cell_angle_beta    90.0
_cell_angle_gamma    119.99999999999984

_symmetry_space_group_name_H-M    'P 1'
loop_
_atom_site_label
_atom_site_type_symbol
_atom_site_fract_x
_atom_site_fract_y
_atom_site_fract_z
_atom_site_occupancy
C2   C   0.611210410862835   0.391259571598663   0.375000000000000   1.0000000
C2   C   0.446715827402683   0.391259571598663   0.375000000000000   1.0000000
C2   C   0.552508730650709   0.438350794634843   0.375000000000000   1.0000000
N2   N   0.111134060737863   0.055666455034845   0.124721898122808   1.0000000
N2   N   0.611125504862111   0.555584343057602   0.127757737426791   1.0000000
N2   N   0.444528814555990   0.055696151301793   0.124901148579911   1.0000000
N2   N   0.944490919842548   0.555608419496081   0.125360241668799   1.0000000
N2   N   0.777845786770591   0.055654833530230   0.124585237791698   1.0000000
N2   N   0.111148766995333   0.722302437949696   0.625040197855121   1.0000000
N2   N   0.444488515120070   0.722297042728815   0.623928743612231   1.0000000
N2   N   0.277775266211702   0.222338490930923   0.624845585617030   1.0000000
N2   N   0.777822903402076   0.722323287828283   0.622396429182319   1.0000000
N2   N   0.611229891385940   0.222338490930923   0.624845585617030   1.0000000
N2   N   0.944483011114520   0.222299355562595   0.625583717597341   1.0000000
N2   N   0.277820337621176   0.722302437949696   0.124959802144727   1.0000000
N2   N   0.111091233427114   0.222300678739128   0.124554471713873   1.0000000
N2   N   0.444516276837162   0.222365887007529   0.125629412764964   1.0000000
N2   N   0.611167051093018   0.722323287828283   0.127603570817712   1.0000000
N2   N   0.944475194275332   0.722297042728813   0.126071256387776   1.0000000
N2   N   0.777876111978715   0.222300678739128   0.124554471713873   1.0000000
N2   N   0.111148715229506   0.888994712561801   0.624998269254883   1.0000000
N2   N   0.444512663999014   0.888994712561801   0.624998269254891   1.0000000
N2   N   0.277743356107147   0.388943231929335   0.624515813075291   1.0000000
N2   N   0.611199177681026   0.388963936233074   0.623661174375575   1.0000000
N2   N   0.777836911895589   0.889007157124477   0.624189949798135   1.0000000
N2   N   0.944505413607711   0.388951330006072   0.625266837770178   1.0000000
N2   N   0.111112583065025   0.388951330006072   0.124733162229747   1.0000000
N2   N   0.277836570967812   0.889006475268952   0.124798186660099   1.0000000
N2   N   0.611180021764521   0.888992965863458   0.125505503610046   1.0000000
N2   N   0.444431425218608   0.388963936233074   0.126338825624370   1.0000000
N2   N   0.944479610765623   0.888992965863458   0.125505503610046   1.0000000
N2   N   0.777866542488811   0.388943231929331   0.125484186924636   1.0000000
N2   N   0.277784166320100   0.555608419496081   0.624639758331277   1.0000000
N2   N   0.111134060737864   0.055666455034845   0.625278101877153   1.0000000
N2   N   0.611125504862111   0.555584343057602   0.622242262573207   1.0000000
N2   N   0.444528814555990   0.055696151301793   0.625098851420094   1.0000000
N2   N   0.944490919842548   0.555608419496081   0.624639758331277   1.0000000
N2   N   0.111143067832765   0.555619468998784   0.124770307964371   1.0000000
N2   N   0.777845786770591   0.055654833530230   0.625414762208177   1.0000000
N2   N   0.277834003412348   0.055696151301793   0.124901148579911   1.0000000
N2   N   0.444420040057834   0.555593791395479   0.127118006202936   1.0000000
N2   N   0.777840418004367   0.555593791395479   0.127118006202914   1.0000000
N2   N   0.611199060963779   0.055666455034845   0.124721898122809   1.0000000
N2   N   0.444420040057834   0.555593791395479   0.622881993796928   1.0000000
N2   N   0.944475713426378   0.055654833530230   0.124585237791696   1.0000000
N2   N   0.277820337621181   0.722302437949696   0.625040197855121   1.0000000
N2   N   0.111091233427114   0.222300678739128   0.625445528286034   1.0000000
N2   N   0.444516276837162   0.222365887007529   0.624370587235054   1.0000000
N2   N   0.611167051093018   0.722323287828283   0.622396429182319   1.0000000
N2   N   0.944475194275332   0.722297042728815   0.623928743612231   1.0000000
N2   N   0.777876111978715   0.222300678739128   0.625445528286034   1.0000000
N2   N   0.111148766995333   0.722302437949696   0.124959802144727   1.0000000
N2   N   0.444488515120070   0.722297042728813   0.126071256387776   1.0000000
N2   N   0.277775266211702   0.222338490930923   0.125154414382958   1.0000000
N2   N   0.777822903402076   0.722323287828283   0.127603570817711   1.0000000
N2   N   0.611229891385940   0.222338490930923   0.125154414382958   1.0000000
N2   N   0.944483011114520   0.222299355562595   0.124416282402747   1.0000000
N2   N   0.111112583065025   0.388951330006072   0.625266837770178   1.0000000
N2   N   0.277836570967812   0.889006475268952   0.625201813339809   1.0000000
N2   N   0.611180021764521   0.888992965863458   0.624494496389893   1.0000000
N2   N   0.444431425218608   0.388963936233073   0.623661174375460   1.0000000
N2   N   0.944479610765623   0.888992965863458   0.624494496389893   1.0000000
N2   N   0.111148715229506   0.888994712561802   0.125001730744880   1.0000000
N2   N   0.777866542488811   0.388943231929335   0.624515813075291   1.0000000
N2   N   0.444512663999014   0.888994712561802   0.125001730744880   1.0000000
N2   N   0.277743356107147   0.388943231929335   0.125484186924636   1.0000000
N2   N   0.277784166320100   0.555608419496081   0.125360241668800   1.0000000
N2   N   0.611199177681026   0.388963936233074   0.126338825624362   1.0000000
N2   N   0.777836911895589   0.889007157124477   0.125810050201784   1.0000000
N2   N   0.944505413607711   0.388951330006072   0.124733162229747   1.0000000
N2   N   0.111143067832765   0.555619468998784   0.625229692035731   1.0000000
N2   N   0.277834003412348   0.055696151301793   0.625098851420094   1.0000000
N2   N   0.777840418004367   0.555593791395479   0.622881993796928   1.0000000
N2   N   0.611199060963779   0.055666455034844   0.625278101877153   1.0000000
N2   N   0.944475713426378   0.055654833530230   0.625414762208177   1.0000000
N2   N   0.055280558798518   0.110525476197187   0.375000000000000   1.0000000
N2   N   0.551055623116577   0.610378967880218   0.375000000000000   1.0000000
N2   N   0.390222396925515   0.113778127184366   0.375000000000000   1.0000000
N2   N   0.890936027625237   0.610430362275117   0.375000000000000   1.0000000
N2   N   0.721911584065209   0.110525476197187   0.375000000000000   1.0000000
N2   N   0.055556687984183   0.777773669582243   0.875000000000000   1.0000000
N2   N   0.388883648264755   0.777773669582243   0.875000000000000   1.0000000
N2   N   0.222227306521887   0.277772093763941   0.875000000000000   1.0000000
N2   N   0.722211920595930   0.777757174525284   0.875000000000000   1.0000000
N2   N   0.555546013746789   0.277771398546532   0.875000000000000   1.0000000
N2   N   0.888882265969722   0.277772151455156   0.875000000000000   1.0000000
N2   N   0.222597076688786   0.778527486710903   0.375000000000000   1.0000000
N2   N   0.055116349053457   0.277134198590303   0.375000000000000   1.0000000
N2   N   0.389509512724931   0.280603588326678   0.375000000000000   1.0000000
N2   N   0.554514487048014   0.778133184729281   0.375000000000000   1.0000000
N2   N   0.890285364348128   0.778133184729281   0.375000000000000   1.0000000
N2   N   0.722346163836243   0.277042261156218   0.375000000000000   1.0000000
N2   N   0.055554688566721   0.944432698920565   0.875000000000000   1.0000000
N2   N   0.388882262246824   0.944436365957277   0.875000000000000   1.0000000
N2   N   0.222228717491952   0.444445983394051   0.875000000000000   1.0000000
N2   N   0.555553304912520   0.444439943158007   0.875000000000000   1.0000000
N2   N   0.722207828480435   0.944422298088200   0.875000000000000   1.0000000
N2   N   0.888883932568721   0.444445983394051   0.875000000000000   1.0000000
N2   N   0.055322805909401   0.443978945152175   0.375000000000000   1.0000000
N2   N   0.223222690605091   0.945686408387977   0.375000000000000   1.0000000
N2   N   0.555148778057773   0.944988112116888   0.375000000000000   1.0000000
N2   N   0.388870136198345   0.441993916663620   0.375000000000000   1.0000000
N2   N   0.888596866888937   0.943579796400171   0.375000000000000   1.0000000
N2   N   0.719790447131919   0.441993916663620   0.375000000000000   1.0000000
N2   N   0.222223085065335   0.611112152526436   0.875000000000000   1.0000000
N2   N   0.055554048839037   0.111094261529692   0.875000000000000   1.0000000
N2   N   0.555553883627616   0.611104089792459   0.875000000000000   1.0000000
N2   N   0.388884434408275   0.111102202150093   0.875000000000000   1.0000000
N2   N   0.888885674951092   0.611109650329801   0.875000000000000   1.0000000
N2   N   0.056345993538771   0.611203501875242   0.375000000000000   1.0000000
N2   N   0.722206879357274   0.111094261529692   0.875000000000000   1.0000000
N2   N   0.223216262322930   0.112120146317272   0.375000000000000   1.0000000
N2   N   0.386161001316737   0.610430362275117   0.375000000000000   1.0000000
N2   N   0.725990011430231   0.610378967880232   0.375000000000000   1.0000000
N2   N   0.555570550660903   0.112120146317272   0.375000000000000   1.0000000
N2   N   0.388890642045455   0.611109650329801   0.875000000000000   1.0000000
N2   N   0.888484007080639   0.110301347494785   0.375000000000000   1.0000000
N2   N   0.222220112877275   0.777773559087897   0.875000000000000   1.0000000
N2   N   0.055556552152043   0.277772151455156   0.875000000000000   1.0000000
N2   N   0.388892051466479   0.277771398546532   0.875000000000000   1.0000000
N2   N   0.555546950592636   0.777764548778467   0.875000000000000   1.0000000
N2   N   0.888884264852519   0.777764548778467   0.875000000000000   1.0000000
N2   N   0.722211453908469   0.277772093763941   0.875000000000000   1.0000000
N2   N   0.056615510256747   0.778285557103569   0.375000000000000   1.0000000
N2   N   0.388336713513288   0.778285557103569   0.375000000000000   1.0000000
N2   N   0.221362763986710   0.277042261156218   0.375000000000000   1.0000000
N2   N   0.721440759272114   0.776214851877799   0.375000000000000   1.0000000
N2   N   0.557760742268404   0.280603588326678   0.375000000000000   1.0000000
N2   N   0.888684516203513   0.277134198590302   0.375000000000000   1.0000000
N2   N   0.055556887708370   0.444447108750149   0.875000000000000   1.0000000
N2   N   0.222220770377147   0.944436365957277   0.875000000000000   1.0000000
N2   N   0.555544677020663   0.944432698920565   0.875000000000000   1.0000000
N2   N   0.388897144648220   0.444443380287986   0.875000000000000   1.0000000
N2   N   0.888881136274341   0.944422298088200   0.875000000000000   1.0000000
N2   N   0.056506000725745   0.944988112116888   0.375000000000000   1.0000000
N2   N   0.722212902306545   0.444443380287986   0.875000000000000   1.0000000
N2   N   0.389130384449613   0.945686408387977   0.375000000000000   1.0000000
N2   N   0.222189353972668   0.443891517286091   0.375000000000000   1.0000000
N2   N   0.221524175003042   0.611203501875242   0.375000000000000   1.0000000
N2   N   0.721649596177712   0.943579796400171   0.375000000000000   1.0000000
N2   N   0.888368829980073   0.443891517286091   0.375000000000000   1.0000000
N2   N   0.055555734127888   0.611112152526436   0.875000000000000   1.0000000
N2   N   0.222224043287749   0.111100182613994   0.875000000000000   1.0000000
N2   N   0.722216872831639   0.611104089792459   0.875000000000000   1.0000000
N2   N   0.555542805992849   0.111100182613994   0.875000000000000   1.0000000
N2   N   0.888879886637693   0.111093106608448   0.875000000000000   1.0000000
B2   B   0.111685069791001   0.055795146942353   0.375000000000000   1.0000000
B2   B   0.444794690145531   0.057024553309014   0.375000000000000   1.0000000
B2   B   0.944921597789965   0.555504488472096   0.375000000000000   1.0000000
B2   B   0.776997748395082   0.054032344260090   0.375000000000000   1.0000000
B2   B   0.111075544697957   0.722210654587125   0.875000000000000   1.0000000
B2   B   0.444489146494211   0.722177936440642   0.875000000000000   1.0000000
B2   B   0.277845845665918   0.222272612702160   0.875000000000000   1.0000000
B2   B   0.777688480292271   0.722120230118192   0.875000000000000   1.0000000
B2   B   0.611093433702952   0.222272612702160   0.875000000000000   1.0000000
B2   B   0.944436598398040   0.222206530128988   0.875000000000000   1.0000000
B2   B   0.277708157431882   0.722433380743287   0.375000000000000   1.0000000
B2   B   0.110856408894786   0.221653834133751   0.375000000000000   1.0000000
B2   B   0.446284359284711   0.225902051902761   0.375000000000000   1.0000000
B2   B   0.607774640688184   0.716415620687168   0.375000000000000   1.0000000
B2   B   0.944263283514757   0.721530637229907   0.375000000000000   1.0000000
B2   B   0.777464091905809   0.221653834133735   0.375000000000000   1.0000000
B2   B   0.111068810119053   0.888851965227318   0.875000000000000   1.0000000
B2   B   0.444449821774850   0.888851965227318   0.875000000000000   1.0000000
B2   B   0.277892576863419   0.388948200466985   0.875000000000000   1.0000000
B2   B   0.611106920252907   0.388983975214522   0.875000000000000   1.0000000
B2   B   0.777708814566702   0.888750962466634   0.875000000000000   1.0000000
B2   B   0.944422139915957   0.388916511082130   0.875000000000000   1.0000000
B2   B   0.111421084251185   0.388580991770412   0.375000000000000   1.0000000
B2   B   0.278150853189453   0.889635039712234   0.375000000000000   1.0000000
B2   B   0.610105691780207   0.887780767247298   0.375000000000000   1.0000000
B2   B   0.944341742134014   0.887780767247298   0.375000000000000   1.0000000
B2   B   0.776134079822936   0.388663605203235   0.375000000000000   1.0000000
B2   B   0.277864399901563   0.555576811946283   0.875000000000000   1.0000000
B2   B   0.111104477000956   0.055524304630348   0.875000000000000   1.0000000
B2   B   0.611120411319992   0.555574155973274   0.875000000000000   1.0000000
B2   B   0.444444473513482   0.055565569847086   0.875000000000000   1.0000000
B2   B   0.944379078711269   0.555576811946283   0.875000000000000   1.0000000
B2   B   0.111044357389317   0.555422048111894   0.375000000000000   1.0000000
B2   B   0.777734074950724   0.055475741553897   0.875000000000000   1.0000000
B2   B   0.278896529830139   0.057024553309016   0.375000000000000   1.0000000
B2   B   0.446854751015160   0.557270079948503   0.375000000000000   1.0000000
B2   B   0.777081995600133   0.557270079948480   0.375000000000000   1.0000000
B2   B   0.610776743818145   0.055795146942353   0.375000000000000   1.0000000
B2   B   0.444552222443038   0.555580743284377   0.875000000000000   1.0000000
B2   B   0.943701262531671   0.054032344260090   0.375000000000000   1.0000000
B2   B   0.277801776555920   0.722210654587125   0.875000000000000   1.0000000
B2   B   0.111151156910567   0.222226425171009   0.875000000000000   1.0000000
B2   B   0.444480461306609   0.222294255946563   0.875000000000000   1.0000000
B2   B   0.611098416492698   0.722120230118192   0.875000000000000   1.0000000
B2   B   0.944355456613084   0.722177936440642   0.875000000000000   1.0000000
B2   B   0.777741934927132   0.222226425171009   0.875000000000000   1.0000000
B2   B   0.111391889978425   0.722433380743287   0.375000000000000   1.0000000
B2   B   0.443934020382057   0.721530637229907   0.375000000000000   1.0000000
B2   B   0.278634089648192   0.223625377464527   0.375000000000000   1.0000000
B2   B   0.775307646665562   0.716415620687168   0.375000000000000   1.0000000
B2   B   0.611657954482869   0.223625377464527   0.375000000000000   1.0000000
B2   B   0.944028768510321   0.221390870353834   0.375000000000000   1.0000000
B2   B   0.111161037832839   0.388916511082130   0.875000000000000   1.0000000
B2   B   0.277772831689868   0.888878996713065   0.875000000000000   1.0000000
B2   B   0.611086639864038   0.888788792725509   0.875000000000000   1.0000000
B2   B   0.444543721628144   0.388983975214522   0.875000000000000   1.0000000
B2   B   0.944368819528062   0.888788792725509   0.875000000000000   1.0000000
B2   B   0.111644875987079   0.889207411109762   0.375000000000000   1.0000000
B2   B   0.777722290270351   0.388948200466985   0.875000000000000   1.0000000
B2   B   0.444229201789234   0.889207411109762   0.375000000000000   1.0000000
B2   B   0.279196192046781   0.388663605203235   0.375000000000000   1.0000000
B2   B   0.277249557349019   0.555504488472096   0.375000000000000   1.0000000
B2   B   0.776039128042995   0.885411589418945   0.375000000000000   1.0000000
B2   B   0.943826574185649   0.388580991770412   0.375000000000000   1.0000000
B2   B   0.111119255312739   0.555571843958793   0.875000000000000   1.0000000
B2   B   0.277787763000349   0.055565569847086   0.875000000000000   1.0000000
B2   B   0.777695187508156   0.555580743284377   0.875000000000000   1.0000000
B2   B   0.611086494295907   0.055524304630348   0.875000000000000   1.0000000
B2   B   0.944408333269612   0.055475741553897   0.875000000000000   1.0000000
B2   B   0.055534013876549   0.111199692610836   0.124954273214822   1.0000000
B2   B   0.555771983054020   0.611006796113440   0.130409433206405   1.0000000
B2   B   0.389053330626408   0.111439994586190   0.125424892215260   1.0000000
B2   B   0.888566032757105   0.611067689702415   0.127105161495540   1.0000000
B2   B   0.722332345400946   0.111199692610836   0.124954273214822   1.0000000
B2   B   0.055334134047292   0.777730276037295   0.624233407387780   1.0000000
B2   B   0.389062808656570   0.777730276037295   0.624233407387780   1.0000000
B2   B   0.222344357038411   0.278016869413792   0.624538449221930   1.0000000
B2   B   0.722105477547517   0.777544288428352   0.621637970238496   1.0000000
B2   B   0.555803324236808   0.278281325344588   0.623697689313714   1.0000000
B2   B   0.888941489556357   0.277884223151680   0.625078845486644   1.0000000
B2   B   0.222229237049892   0.777791807433128   0.125202489235942   1.0000000
B2   B   0.055609400261903   0.277884223151680   0.124921154513162   1.0000000
B2   B   0.389144667774498   0.278281325344588   0.126302310686251   1.0000000
B2   B   0.555747462788982   0.777601331367717   0.127343000797903   1.0000000
B2   B   0.888520535245459   0.777601331367717   0.127343000797903   1.0000000
B2   B   0.722339179042009   0.278016869413792   0.125461550777960   1.0000000
B2   B   0.055402302254985   0.944445684774769   0.624553270302353   1.0000000
B2   B   0.389013275514566   0.944555594004787   0.624838370636715   1.0000000
B2   B   0.222382042041707   0.444556202842442   0.624304663764357   1.0000000
B2   B   0.555794466483973   0.444922266301325   0.621016028739234   1.0000000
B2   B   0.722263970128050   0.944352959340604   0.624162342180061   1.0000000
B2   B   0.888840827467543   0.444556202842442   0.624304663764357   1.0000000
B2   B   0.055592466581571   0.444518266496490   0.125103353496543   1.0000000
B2   B   0.222208985156919   0.944555594004787   0.125161629363469   1.0000000
B2   B   0.555710049186641   0.944445684774769   0.125446729697816   1.0000000
B2   B   0.389208703247621   0.444722251212598   0.127415925598738   1.0000000
B2   B   0.888755655879112   0.944352959340604   0.125837657819980   1.0000000
B2   B   0.722180214631846   0.444722251212598   0.127415925598738   1.0000000
B2   B   0.222330212208953   0.611117694496689   0.624582011486803   1.0000000
B2   B   0.055534013876551   0.111199692610836   0.625045726785078   1.0000000
B2   B   0.555771983054020   0.611006796113440   0.619590566793817   1.0000000
B2   B   0.389053330626408   0.111439994586190   0.624575107784907   1.0000000
B2   B   0.888566032757105   0.611067689702415   0.622894838504472   1.0000000
B2   B   0.055454148954473   0.611117694496689   0.125417988513065   1.0000000
B2   B   0.722332345400946   0.111199692610836   0.625045726785078   1.0000000
B2   B   0.222280163519281   0.111349578799208   0.125222086684026   1.0000000
B2   B   0.389168323611793   0.611067689702415   0.127105161495537   1.0000000
B2   B   0.721901479726086   0.611006796113440   0.130409433206405   1.0000000
B2   B   0.555736081946484   0.111349578799208   0.125222086684026   1.0000000
B2   B   0.389168323611793   0.611067689702415   0.622894838504472   1.0000000
B2   B   0.888903003569250   0.111139340471772   0.124882737603591   1.0000000
B2   B   0.222229237049892   0.777791807433128   0.624797510764027   1.0000000
B2   B   0.055609400261901   0.277884223151680   0.625078845486644   1.0000000
B2   B   0.389144667774498   0.278281325344588   0.623697689313714   1.0000000
B2   B   0.555747462788982   0.777601331367717   0.622656999201874   1.0000000
B2   B   0.888520535245459   0.777601331367717   0.622656999201874   1.0000000
B2   B   0.722339179042009   0.278016869413792   0.624538449221930   1.0000000
B2   B   0.055334134047292   0.777730276037295   0.125766592612146   1.0000000
B2   B   0.389062808656570   0.777730276037295   0.125766592612146   1.0000000
B2   B   0.222344357038411   0.278016869413792   0.125461550777960   1.0000000
B2   B   0.722105477547517   0.777544288428352   0.128362029761314   1.0000000
B2   B   0.555803324236808   0.278281325344588   0.126302310686251   1.0000000
B2   B   0.888941489556357   0.277884223151680   0.124921154513162   1.0000000
B2   B   0.055592466581571   0.444518266496490   0.624896646503575   1.0000000
B2   B   0.222208985156919   0.944555594004787   0.624838370636715   1.0000000
B2   B   0.555710049186641   0.944445684774769   0.624553270302353   1.0000000
B2   B   0.389208703247621   0.444722251212598   0.622584074401240   1.0000000
B2   B   0.888755655879112   0.944352959340604   0.624162342180061   1.0000000
B2   B   0.055402302254985   0.944445684774769   0.125446729697816   1.0000000
B2   B   0.722180214631846   0.444722251212598   0.622584074401240   1.0000000
B2   B   0.389013275514566   0.944555594004787   0.125161629363469   1.0000000
B2   B   0.222382042041707   0.444556202842442   0.125695336235603   1.0000000
B2   B   0.222330212208953   0.611117694496694   0.125417988513065   1.0000000
B2   B   0.555794466483973   0.444922266301325   0.128983971260578   1.0000000
B2   B   0.722263970128050   0.944352959340604   0.125837657819980   1.0000000
B2   B   0.888840827467543   0.444556202842442   0.125695336235603   1.0000000
B2   B   0.055454148954472   0.611117694496689   0.624582011486803   1.0000000
B2   B   0.222280163519331   0.111349578799203   0.624777913316001   1.0000000
B2   B   0.721901479726086   0.611006796113440   0.619590566793817   1.0000000
B2   B   0.555736081946484   0.111349578799208   0.624777913316001   1.0000000
B2   B   0.888903003569250   0.111139340471772   0.625117262396494   1.0000000


