data_1
_audit_creation_method   'vasp2cif'
_cell_length_a    17.52789999999977
_cell_length_b    17.52789999999977
_cell_length_c    15.0
_cell_angle_alpha    90.0
_cell_angle_beta    90.0
_cell_angle_gamma    119.99999999999916

_symmetry_space_group_name_H-M    'P 1'
loop_
_atom_site_label
_atom_site_type_symbol
_atom_site_fract_x
_atom_site_fract_y
_atom_site_fract_z
_atom_site_occupancy
B2   B   0.907287984821642   0.952136315153963   0.110762951187348   1.0000000
B2   B   0.908391245345044   0.095202937503759   0.110762590945289   1.0000000
B2   B   0.908774333853728   0.237841614986586   0.110744966550663   1.0000000
B2   B   0.908756064486342   0.380579046003693   0.110732181502163   1.0000000
B2   B   0.907584286264742   0.523314721412318   0.110761770851876   1.0000000
B2   B   0.905812419927839   0.665705132404607   0.110785717563967   1.0000000
B2   B   0.904238654404199   0.807195032393699   0.110713692242218   1.0000000
B2   B   0.050121589245533   0.953482001147820   0.110719790312878   1.0000000
B2   B   0.052103187034518   0.097005016196811   0.110776286894058   1.0000000
B2   B   0.052181096579045   0.239110172677591   0.110795996452370   1.0000000
B2   B   0.051296560780552   0.381473662961302   0.110768116944737   1.0000000
B2   B   0.049745727110724   0.524444808026801   0.110743171549962   1.0000000
B2   B   0.048904259648904   0.667428747155479   0.110755438058942   1.0000000
B2   B   0.048906097715117   0.810263395784084   0.110732386710031   1.0000000
B2   B   0.193091975820553   0.954636164064502   0.110719080020742   1.0000000
B2   B   0.196196168508034   0.099574429640392   0.110725890827960   1.0000000
B2   B   0.197206779614530   0.242127298868147   0.110773443816006   1.0000000
B2   B   0.194908505540182   0.382874728489961   0.110764467358454   1.0000000
B2   B   0.191510312456709   0.525359513981317   0.110742878050393   1.0000000
B2   B   0.190932571282407   0.668400086376800   0.110738621554899   1.0000000
B2   B   0.191858368426596   0.811327155417561   0.110737130256898   1.0000000
B2   B   0.335574138528164   0.954488698324584   0.110733943690815   1.0000000
B2   B   0.337334633460794   0.098292426926431   0.110746003737293   1.0000000
B2   B   0.343760109546257   0.246717327965679   0.110773359591317   1.0000000
B2   B   0.342348131094266   0.387237861445234   0.110723717811718   1.0000000
B2   B   0.332831713233687   0.527722879353262   0.110724662733493   1.0000000
B2   B   0.332134131552610   0.669570332472266   0.110778183279671   1.0000000
B2   B   0.334401647135299   0.811820606976347   0.110769257943677   1.0000000
B2   B   0.478294542482730   0.953377921540353   0.110764712225820   1.0000000
B2   B   0.479388930284732   0.095729787036782   0.110775422932121   1.0000000
B2   B   0.481176428949373   0.238707524499210   0.110768418407518   1.0000000
B2   B   0.497072347913474   0.393009765486395   0.110749316349213   1.0000000
B2   B   0.472261014910521   0.669471101339592   0.110720694732191   1.0000000
B2   B   0.477027568057324   0.811251362199933   0.110720383371506   1.0000000
B2   B   0.621311350825910   0.952353677673410   0.110757143185995   1.0000000
B2   B   0.622206608732854   0.094478909134921   0.110768807685927   1.0000000
B2   B   0.623128095105867   0.236192163362840   0.110753388491407   1.0000000
B2   B   0.625187146583239   0.377168709618342   0.110770956426170   1.0000000
B2   B   0.608965474110380   0.503467475596217   0.110732069560997   1.0000000
B2   B   0.619121914475638   0.809382092438673   0.110693164078212   1.0000000
B2   B   0.764328456914158   0.951608429881094   0.110787976565340   1.0000000
B2   B   0.765287159868661   0.094545905843446   0.110747334931474   1.0000000
B2   B   0.765946099728657   0.237055580363192   0.110737599933174   1.0000000
B2   B   0.766726557269562   0.379506626864816   0.110715557100853   1.0000000
B2   B   0.764686772115512   0.521119122186096   0.110794189142322   1.0000000
B2   B   0.758631138481234   0.659285681338439   0.110738907181284   1.0000000
B2   B   0.763352077650354   0.807529905018346   0.110735269051187   1.0000000
O2   O   0.615503334055058   0.660227108082146   0.109581191306183   1.0000000
N2   N   0.953862481600494   0.903749945581302   0.110715719962547   1.0000000
N2   N   0.956194598712675   0.047949054750214   0.110753859004331   1.0000000
N2   N   0.956651113883622   0.190630445809733   0.110744666680834   1.0000000
N2   N   0.956319708807475   0.333129140574829   0.110736242879920   1.0000000
N2   N   0.955165245078806   0.475904939860203   0.110731034559716   1.0000000
N2   N   0.953925709594535   0.618746908102623   0.110757447369743   1.0000000
N2   N   0.953215533074951   0.761174822211176   0.110728767779181   1.0000000
N2   N   0.097495794952132   0.905950239780608   0.110700766751602   1.0000000
N2   N   0.099812960535546   0.049831965360919   0.110725357897033   1.0000000
N2   N   0.101002959381449   0.192791641806321   0.110768199004815   1.0000000
N2   N   0.099588812583968   0.334389168761342   0.110771019492854   1.0000000
N2   N   0.097123876215921   0.476783471951627   0.110740212659552   1.0000000
N2   N   0.096249900155373   0.619855402009840   0.110723994228450   1.0000000
N2   N   0.096551855338671   0.762899155835149   0.110723430289037   1.0000000
N2   N   0.240207270535690   0.906737501433148   0.110709625115597   1.0000000
N2   N   0.242026968166251   0.050434272602579   0.110703574872328   1.0000000
N2   N   0.246484412580401   0.196371165131240   0.110737433977851   1.0000000
N2   N   0.245634068640898   0.337857828268113   0.110752210251541   1.0000000
N2   N   0.239064881743680   0.477863166032937   0.110705918478878   1.0000000
N2   N   0.237771712822542   0.620651569491906   0.110720858726012   1.0000000
N2   N   0.239153103151336   0.763721511588806   0.110734668431532   1.0000000
N2   N   0.382910077169806   0.906758769485086   0.110737227819352   1.0000000
N2   N   0.384060771925239   0.049680412137844   0.110738431457911   1.0000000
N2   N   0.386431985613237   0.194099139804845   0.110742371445474   1.0000000
N2   N   0.396604221235611   0.345592788854079   0.110752794486735   1.0000000
N2   N   0.382190702802858   0.482492132229336   0.110639749013734   1.0000000
N2   N   0.378126520162634   0.621906861087016   0.110805061564245   1.0000000
N2   N   0.381656724337075   0.764386579237052   0.110755976899104   1.0000000
N2   N   0.525844170043507   0.905886463540532   0.110749974115120   1.0000000
N2   N   0.526819896710603   0.048066378008058   0.110760889476419   1.0000000
N2   N   0.527959174450325   0.190333902078674   0.110758672113219   1.0000000
N2   N   0.530647980272405   0.333023417327128   0.110749286689980   1.0000000
N2   N   0.472566359889713   0.528788049644246   0.110988774338324   1.0000000
N2   N   0.506907487031191   0.613103082298188   0.110875700323941   1.0000000
N2   N   0.524113677547257   0.763431078936646   0.110577321698169   1.0000000
N2   N   0.668786830296687   0.904695752028149   0.110757794194250   1.0000000
N2   N   0.669856828612849   0.047178060960212   0.110737645044056   1.0000000
N2   N   0.670680022850870   0.189154398687896   0.110742173032850   1.0000000
N2   N   0.672091797588414   0.330595594487404   0.110717654965182   1.0000000
N2   N   0.670443644626950   0.471159425473715   0.110795174168844   1.0000000
N2   N   0.662858250716978   0.600343093805393   0.110715467750156   1.0000000
N2   N   0.669905678435655   0.766604210175228   0.110723412043541   1.0000000
N2   N   0.811680434221992   0.903687308634944   0.110782141317015   1.0000000
N2   N   0.812850892899021   0.047034931573226   0.110739903337096   1.0000000
N2   N   0.813497541646923   0.189716088254582   0.110727272442662   1.0000000
N2   N   0.813967998761034   0.332158694658334   0.110706308082941   1.0000000
N2   N   0.813048082023808   0.474535403302005   0.110722716314549   1.0000000
N2   N   0.810396308779979   0.616098393959909   0.110782732051291   1.0000000
N2   N   0.807448241768865   0.756667307880453   0.110662294509760   1.0000000


