data_1
_audit_creation_method   'vasp2cif'
_cell_length_a    14.93631414619966
_cell_length_b    14.936314146199727
_cell_length_c    13.341276283792837
_cell_angle_alpha    90.0
_cell_angle_beta    90.0
_cell_angle_gamma    119.99999999999984

_symmetry_space_group_name_H-M    'P 1'
loop_
_atom_site_label
_atom_site_type_symbol
_atom_site_fract_x
_atom_site_fract_y
_atom_site_fract_z
_atom_site_occupancy
P2   P   0.444444444444443   0.388888888888886   0.375000000000000   1.0000000
N2   N   0.111125286935244   0.055543392646918   0.121835583145585   1.0000000
N2   N   0.611119580246700   0.555537548969339   0.124441681461540   1.0000000
N2   N   0.444418105711714   0.055543392646920   0.121835583145585   1.0000000
N2   N   0.944459177951068   0.555568546752623   0.122041997638280   1.0000000
N2   N   0.777777777777779   0.055555555555557   0.122098990826127   1.0000000
N2   N   0.111111111111114   0.722222222222221   0.627473144587082   1.0000000
N2   N   0.444418105711714   0.722208046398354   0.628164416854281   1.0000000
N2   N   0.277795784364104   0.222213753086553   0.625558318538539   1.0000000
N2   N   0.777789940686487   0.722208046398354   0.628164416854284   1.0000000
N2   N   0.611090045529238   0.222243287804193   0.627717261037284   1.0000000
N2   N   0.944468739337958   0.222244335151764   0.628189419782462   1.0000000
N2   N   0.277764786580530   0.722223964531531   0.122041997638280   1.0000000
N2   N   0.111153242275092   0.222243287804193   0.122282738962844   1.0000000
N2   N   0.444417968722644   0.222213753086553   0.124441681461539   1.0000000
N2   N   0.611090045529238   0.722180091058102   0.122282738962845   1.0000000
N2   N   0.944459177951068   0.722223964531531   0.122041997638280   1.0000000
N2   N   0.777775595813535   0.222244335151764   0.121810580217729   1.0000000
N2   N   0.111109368801626   0.888874155382261   0.627958002361496   1.0000000
N2   N   0.444424139394398   0.888878736364183   0.628444759271792   1.0000000
N2   N   0.277795784364114   0.388915364610684   0.625558318538539   1.0000000
N2   N   0.611119580246700   0.388915364610684   0.625558318538538   1.0000000
N2   N   0.777775595813535   0.888864593995371   0.628189419782462   1.0000000
N2   N   0.944454596969146   0.388909193938930   0.628444759271792   1.0000000
N2   N   0.111125286935240   0.388915227621614   0.121835583145589   1.0000000
N2   N   0.277764786580530   0.888874155382260   0.122041997638280   1.0000000
N2   N   0.611088998181536   0.888864593995371   0.121810580217729   1.0000000
N2   N   0.444444444444443   0.388888888888886   0.131567706145081   1.0000000
N2   N   0.944454596969146   0.888878736364183   0.121555240728390   1.0000000
N2   N   0.777789940686487   0.388915227621614   0.121835583145585   1.0000000
N2   N   0.277765878616959   0.555567454716420   0.627635495505179   1.0000000
N2   N   0.111125286935241   0.055543392646920   0.628164416854284   1.0000000
N2   N   0.611119580246700   0.555537548969339   0.625558318538539   1.0000000
N2   N   0.444418105711714   0.055543392646920   0.628164416854284   1.0000000
N2   N   0.944459177951069   0.555568546752623   0.627958002361496   1.0000000
N2   N   0.111109368801626   0.555568546752623   0.122041997638280   1.0000000
N2   N   0.777777777777779   0.055555555555557   0.627901009174294   1.0000000
N2   N   0.277765878616959   0.055531757233640   0.122364504494671   1.0000000
N2   N   0.444417968722644   0.555537548969339   0.124441681461539   1.0000000
N2   N   0.777801576099417   0.555567454716420   0.122364504494732   1.0000000
N2   N   0.611088998181536   0.055557737519822   0.121810580217729   1.0000000
N2   N   0.444417968722644   0.555537548969339   0.625558318538538   1.0000000
N2   N   0.944468739337958   0.055557737519822   0.121810580217729   1.0000000
N2   N   0.277764786580530   0.722223964531530   0.627958002361496   1.0000000
N2   N   0.111153242275092   0.222243287804193   0.627717261037280   1.0000000
N2   N   0.444417968722644   0.222213753086553   0.625558318538539   1.0000000
N2   N   0.611090045529238   0.722180091058102   0.627717261037284   1.0000000
N2   N   0.944459177951069   0.722223964531531   0.627958002361496   1.0000000
N2   N   0.777775595813535   0.222244335151764   0.628189419782462   1.0000000
N2   N   0.111111111111114   0.722222222222221   0.122526855412814   1.0000000
N2   N   0.444418105711714   0.722208046398354   0.121835583145585   1.0000000
N2   N   0.277795784364104   0.222213753086553   0.124441681461541   1.0000000
N2   N   0.777789940686487   0.722208046398354   0.121835583145589   1.0000000
N2   N   0.611090045529238   0.222243287804193   0.122282738962833   1.0000000
N2   N   0.944468739337958   0.222244335151764   0.121810580217729   1.0000000
N2   N   0.111125286935241   0.388915227621614   0.628164416854281   1.0000000
N2   N   0.277764786580530   0.888874155382260   0.627958002361496   1.0000000
N2   N   0.611088998181536   0.888864593995371   0.628189419782462   1.0000000
N2   N   0.444444444444443   0.388888888888886   0.618432293855103   1.0000000
N2   N   0.944454596969146   0.888878736364183   0.628444759271792   1.0000000
N2   N   0.111109368801626   0.888874155382260   0.122041997638280   1.0000000
N2   N   0.777789940686487   0.388915227621614   0.628164416854287   1.0000000
N2   N   0.444424139394398   0.888878736364183   0.121555240728390   1.0000000
N2   N   0.277795784364114   0.388915364610684   0.124441681461540   1.0000000
N2   N   0.277765878616959   0.555567454716420   0.122364504494671   1.0000000
N2   N   0.611119580246700   0.388915364610684   0.124441681461540   1.0000000
N2   N   0.777775595813535   0.888864593995371   0.121810580217729   1.0000000
N2   N   0.944454596969146   0.388909193938930   0.121555240728390   1.0000000
N2   N   0.111109368801626   0.555568546752623   0.627958002361496   1.0000000
N2   N   0.277765878616959   0.055531757233639   0.627635495505179   1.0000000
N2   N   0.777801576099417   0.555567454716420   0.627635495505179   1.0000000
N2   N   0.611088998181536   0.055557737519822   0.628189419782462   1.0000000
N2   N   0.944468739337958   0.055557737519822   0.628189419782462   1.0000000
N2   N   0.054823604761608   0.110598427654235   0.375000000000000   1.0000000
N2   N   0.556199809629913   0.612399619260013   0.375000000000000   1.0000000
N2   N   0.388556680097513   0.108950739733949   0.375000000000000   1.0000000
N2   N   0.889485878745238   0.611409606039301   0.375000000000000   1.0000000
N2   N   0.722341071192997   0.110992262140301   0.375000000000000   1.0000000
N2   N   0.055552113024583   0.777781220308834   0.875000000000000   1.0000000
N2   N   0.388900567860033   0.777779625655285   0.875000000000000   1.0000000
N2   N   0.222226681875345   0.277780007604334   0.875000000000000   1.0000000
N2   N   0.722218477956281   0.777782407664486   0.875000000000000   1.0000000
N2   N   0.555553325728971   0.277780007604334   0.875000000000000   1.0000000
N2   N   0.888884921601093   0.277769843201987   0.875000000000000   1.0000000
N2   N   0.222122465870059   0.777727899601747   0.375000000000000   1.0000000
N2   N   0.054823604761598   0.277558510440588   0.375000000000000   1.0000000
N2   N   0.385080900858060   0.270161801716369   0.375000000000000   1.0000000
N2   N   0.555774822892570   0.778509728571743   0.375000000000000   1.0000000
N2   N   0.889504484007003   0.778332383743434   0.375000000000000   1.0000000
N2   N   0.722734905679371   0.277558510440588   0.375000000000000   1.0000000
N2   N   0.055553707678225   0.944454275538012   0.875000000000000   1.0000000
N2   N   0.388900567860033   0.944454275538012   0.875000000000000   1.0000000
N2   N   0.222229256147345   0.444430543729356   0.875000000000000   1.0000000
N2   N   0.555532146821149   0.444432740077239   0.875000000000000   1.0000000
N2   N   0.722224218284136   0.944448436568456   0.875000000000000   1.0000000
N2   N   0.888879057795317   0.444432765473296   0.875000000000000   1.0000000
N2   N   0.055000949589881   0.444505433596931   0.375000000000000   1.0000000
N2   N   0.221923727294074   0.943847454588095   0.375000000000000   1.0000000
N2   N   0.555700011115543   0.944516672224337   0.375000000000000   1.0000000
N2   N   0.385080900858061   0.448252432475268   0.375000000000000   1.0000000
N2   N   0.888816661108992   0.944516672224337   0.375000000000000   1.0000000
N2   N   0.724382593599466   0.444776653235815   0.375000000000000   1.0000000
N2   N   0.222230907232820   0.611102426100483   0.875000000000000   1.0000000
N2   N   0.055550925668518   0.111114855376912   0.875000000000000   1.0000000
N2   N   0.555553325728971   0.611106651458003   0.875000000000000   1.0000000
N2   N   0.388902789603973   0.111132045751342   0.875000000000000   1.0000000
N2   N   0.888871518867736   0.611102426100483   0.875000000000000   1.0000000
N2   N   0.055605433731621   0.611210867463310   0.375000000000000   1.0000000
N2   N   0.722224218284136   0.111109115049074   0.875000000000000   1.0000000
N2   N   0.220394059636198   0.108950739733935   0.375000000000000   1.0000000
N2   N   0.388556680097513   0.612939273697058   0.375000000000000   1.0000000
N2   N   0.724382593599466   0.612939273697058   0.375000000000000   1.0000000
N2   N   0.555774822892569   0.110598427654235   0.375000000000000   1.0000000
N2   N   0.388902789603973   0.611104077186108   0.875000000000000   1.0000000
N2   N   0.888651190947185   0.110992262140301   0.375000000000000   1.0000000
N2   N   0.222229107284094   0.777781220308834   0.875000000000000   1.0000000
N2   N   0.055550925668518   0.277769403625088   0.875000000000000   1.0000000
N2   N   0.388900593256090   0.277801186512380   0.875000000000000   1.0000000
N2   N   0.555563929708350   0.777782407664486   0.875000000000000   1.0000000
N2   N   0.888879057795317   0.777779625655285   0.875000000000000   1.0000000
N2   N   0.722218477956194   0.277769403625088   0.875000000000000   1.0000000
N2   N   0.055605433731621   0.777727899601747   0.375000000000000   1.0000000
N2   N   0.388827899736397   0.778332383743434   0.375000000000000   1.0000000
N2   N   0.220933714073265   0.277133523703329   0.375000000000000   1.0000000
N2   N   0.722734905679371   0.778509728571743   0.375000000000000   1.0000000
N2   N   0.556199809629913   0.277133523703329   0.375000000000000   1.0000000
N2   N   0.888816661108992   0.277633322217938   0.375000000000000   1.0000000
N2   N   0.055553707678225   0.444432765473296   0.875000000000000   1.0000000
N2   N   0.222230907232820   0.944461814465593   0.875000000000000   1.0000000
N2   N   0.555563490131528   0.944448411732236   0.875000000000000   1.0000000
N2   N   0.388900593256090   0.444432740077239   0.875000000000000   1.0000000
N2   N   0.888884921601093   0.944448411732236   0.875000000000000   1.0000000
N2   N   0.055000949589881   0.943828849326326   0.375000000000000   1.0000000
N2   N   0.722201287581878   0.444430543729356   0.875000000000000   1.0000000
N2   N   0.388827899736397   0.943828849326326   0.375000000000000   1.0000000
N2   N   0.220394059636198   0.444776653235837   0.375000000000000   1.0000000
N2   N   0.221923727294074   0.611409606039301   0.375000000000000   1.0000000
N2   N   0.563171531617208   0.448252432475268   0.375000000000000   1.0000000
N2   N   0.722341071192997   0.944682142386144   0.375000000000000   1.0000000
N2   N   0.889504484007003   0.444505433596931   0.375000000000000   1.0000000
N2   N   0.055552113024583   0.611104226049137   0.875000000000000   1.0000000
N2   N   0.222229256147345   0.111132045751342   0.875000000000000   1.0000000
N2   N   0.722201287581878   0.611104077186108   0.875000000000000   1.0000000
N2   N   0.555563929708350   0.111114855376912   0.875000000000000   1.0000000
N2   N   0.888884896764872   0.111109115049074   0.875000000000000   1.0000000
B2   B   0.108680025691954   0.053647025597523   0.375000000000000   1.0000000
B2   B   0.616631629224912   0.562906144628460   0.375000000000000   1.0000000
B2   B   0.444966999905501   0.053647025597512   0.375000000000000   1.0000000
B2   B   0.944991692164233   0.555629381143257   0.375000000000000   1.0000000
B2   B   0.777777777777779   0.055555555555557   0.375000000000000   1.0000000
B2   B   0.111111111111114   0.722222222222221   0.875000000000000   1.0000000
B2   B   0.444469779337094   0.722297039670320   0.875000000000000   1.0000000
B2   B   0.277691689734945   0.222154275563381   0.875000000000000   1.0000000
B2   B   0.777827260333047   0.722297039670320   0.875000000000000   1.0000000
B2   B   0.611165953699356   0.222167379634113   0.875000000000000   1.0000000
B2   B   0.944389902319194   0.222186764137769   0.875000000000000   1.0000000
B2   B   0.277703952189907   0.722695644354379   0.375000000000000   1.0000000
B2   B   0.108222096915077   0.220777715124190   0.375000000000000   1.0000000
B2   B   0.446274515403547   0.216701704108492   0.375000000000000   1.0000000
B2   B   0.612555618209271   0.725111236418163   0.375000000000000   1.0000000
B2   B   0.944991692164233   0.722695644354379   0.375000000000000   1.0000000
B2   B   0.778147244633289   0.221671947048348   0.375000000000000   1.0000000
B2   B   0.111089940871025   0.888869420275305   0.875000000000000   1.0000000
B2   B   0.444469287083836   0.888901310208838   0.875000000000000   1.0000000
B2   B   0.277691689734945   0.388870747505072   0.875000000000000   1.0000000
B2   B   0.611179057770532   0.388870747505072   0.875000000000000   1.0000000
B2   B   0.777796861818826   0.888943431014134   0.875000000000000   1.0000000
B2   B   0.944432023124490   0.388864046249492   0.875000000000000   1.0000000
B2   B   0.108680025691954   0.388366333427827   0.375000000000000   1.0000000
B2   B   0.277703952189907   0.888341641169095   0.375000000000000   1.0000000
B2   B   0.611661386285266   0.889808630918495   0.375000000000000   1.0000000
B2   B   0.944257173892199   0.889076159441129   0.375000000000000   1.0000000
B2   B   0.779686307735806   0.388366333427827   0.375000000000000   1.0000000
B2   B   0.277747908378150   0.555585424955150   0.875000000000000   1.0000000
B2   B   0.111036293663088   0.055506073000333   0.875000000000000   1.0000000
B2   B   0.611179057770528   0.555641643598364   0.875000000000000   1.0000000
B2   B   0.444469779337094   0.055506073000333   0.875000000000000   1.0000000
B2   B   0.944463913058024   0.555553853929034   0.875000000000000   1.0000000
B2   B   0.110637688979085   0.555629381143257   0.375000000000000   1.0000000
B2   B   0.777777777777779   0.055555555555557   0.875000000000000   1.0000000
B2   B   0.276724006443853   0.053448012887688   0.375000000000000   1.0000000
B2   B   0.446274515403547   0.562906144628456   0.375000000000000   1.0000000
B2   B   0.779885320445629   0.556609326889671   0.375000000000000   1.0000000
B2   B   0.611661386285266   0.055186088699897   0.375000000000000   1.0000000
B2   B   0.444462585828257   0.555641643598364   0.875000000000000   1.0000000
B2   B   0.943524702414821   0.055186088699897   0.375000000000000   1.0000000
B2   B   0.277779479404327   0.722243392462271   0.875000000000000   1.0000000
B2   B   0.111001425934951   0.222167379634113   0.875000000000000   1.0000000
B2   B   0.444462585828257   0.222154275563381   0.875000000000000   1.0000000
B2   B   0.611165953699356   0.722331907398332   0.875000000000000   1.0000000
B2   B   0.944463913058024   0.722243392462271   0.875000000000000   1.0000000
B2   B   0.777796861818826   0.222186764137771   0.875000000000000   1.0000000
B2   B   0.111111111111114   0.722222222222221   0.375000000000000   1.0000000
B2   B   0.444966999905501   0.724653307641429   0.375000000000000   1.0000000
B2   B   0.270427188704867   0.216701704108492   0.375000000000000   1.0000000
B2   B   0.779686307735806   0.724653307641429   0.375000000000000   1.0000000
B2   B   0.612555618209271   0.220777715124190   0.375000000000000   1.0000000
B2   B   0.943524702414834   0.221671947048348   0.375000000000000   1.0000000
B2   B   0.111036293663088   0.388863553996234   0.875000000000000   1.0000000
B2   B   0.277779479404327   0.888869420275305   0.875000000000000   1.0000000
B2   B   0.611146569195263   0.888943431014134   0.875000000000000   1.0000000
B2   B   0.444444444444443   0.388888888888886   0.875000000000000   1.0000000
B2   B   0.944432023124490   0.888901310208838   0.875000000000000   1.0000000
B2   B   0.110637688979060   0.888341641169095   0.375000000000000   1.0000000
B2   B   0.777827260333047   0.388863553996234   0.875000000000000   1.0000000
B2   B   0.444818985549114   0.889076159441129   0.375000000000000   1.0000000
B2   B   0.270427188704867   0.387058817929782   0.375000000000000   1.0000000
B2   B   0.276724006443853   0.556609326889671   0.375000000000000   1.0000000
B2   B   0.616631629224912   0.387058817929785   0.375000000000000   1.0000000
B2   B   0.778147244633289   0.889808630918495   0.375000000000000   1.0000000
B2   B   0.944257173892199   0.388514347784291   0.375000000000000   1.0000000
B2   B   0.111089940871025   0.555553853929034   0.875000000000000   1.0000000
B2   B   0.277747908378150   0.055495816756314   0.875000000000000   1.0000000
B2   B   0.777837516577035   0.555585424955150   0.875000000000000   1.0000000
B2   B   0.611146569195263   0.055536471514630   0.875000000000000   1.0000000
B2   B   0.944389902319194   0.055536471514630   0.875000000000000   1.0000000
B2   B   0.055408479845177   0.110971675973398   0.121419655580248   1.0000000
B2   B   0.555704251192588   0.611408502385249   0.122822111321607   1.0000000
B2   B   0.388750028744891   0.110736297861440   0.121965759703773   1.0000000
B2   B   0.889126869638191   0.611230101485981   0.121603754748666   1.0000000
B2   B   0.722243208463891   0.111090124869526   0.121557882498171   1.0000000
B2   B   0.055588473758962   0.777744859574282   0.628161980294101   1.0000000
B2   B   0.388808780884453   0.777843547271364   0.628711807240586   1.0000000
B2   B   0.221924830948138   0.277629082140711   0.627177888678559   1.0000000
B2   B   0.722361657359858   0.777924853488035   0.628580344419833   1.0000000
B2   B   0.555704251192588   0.277629082140711   0.627177888678559   1.0000000
B2   B   0.888899733992655   0.277799467984999   0.628700953410346   1.0000000
B2   B   0.222156385815387   0.777744859574282   0.121838019705745   1.0000000
B2   B   0.055408479845180   0.277770137205087   0.121419655580254   1.0000000
B2   B   0.388629738178978   0.277259476357696   0.125240347449945   1.0000000
B2   B   0.555563196128254   0.777924853488035   0.121419655580248   1.0000000
B2   B   0.889034766386870   0.777843547271364   0.121288192759403   1.0000000
B2   B   0.722361657359858   0.277770137205087   0.121419655580254   1.0000000
B2   B   0.055489786061860   0.944298566946458   0.628711807240586   1.0000000
B2   B   0.388808780884453   0.944298566946458   0.628711807240586   1.0000000
B2   B   0.221986269116797   0.444583304588437   0.628034240296348   1.0000000
B2   B   0.556073856975372   0.444703595154350   0.624759652550082   1.0000000
B2   B   0.722243208463891   0.944486416927306   0.628442117501663   1.0000000
B2   B   0.889034766386870   0.444524552448876   0.628711807240586   1.0000000
B2   B   0.055489786061860   0.444524552448876   0.121288192759413   1.0000000
B2   B   0.222103231847565   0.944206463695137   0.121603754748665   1.0000000
B2   B   0.555533865348050   0.944433599340674   0.121299046589349   1.0000000
B2   B   0.388629738178978   0.444703595154350   0.125240347449907   1.0000000
B2   B   0.888899733992655   0.944433599340674   0.121299046589349   1.0000000
B2   B   0.722597035472008   0.444583304588437   0.121965759703772   1.0000000
B2   B   0.222103231847565   0.611230101485981   0.628396245251290   1.0000000
B2   B   0.055408479845177   0.110971675973398   0.628580344419833   1.0000000
B2   B   0.555704251192588   0.611408502385249   0.627177888678558   1.0000000
B2   B   0.388750028744891   0.110736297861439   0.628034240296348   1.0000000
B2   B   0.889126869638191   0.611230101485981   0.628396245251290   1.0000000
B2   B   0.055588473758962   0.611176947517799   0.121838019705745   1.0000000
B2   B   0.722243208463891   0.111090124869526   0.628442117501663   1.0000000
B2   B   0.221986269116796   0.110736297861440   0.121965759703773   1.0000000
B2   B   0.388750028744891   0.611347064216741   0.121965759703773   1.0000000
B2   B   0.722597035472008   0.611347064216741   0.121965759703773   1.0000000
B2   B   0.555563196128254   0.110971675973398   0.121419655580254   1.0000000
B2   B   0.388750028744891   0.611347064216741   0.628034240296348   1.0000000
B2   B   0.888846916406023   0.111090124869526   0.121557882498171   1.0000000
B2   B   0.222156385815387   0.777744859574282   0.628161980294101   1.0000000
B2   B   0.055408479845177   0.277770137205087   0.628580344419833   1.0000000
B2   B   0.388629738178978   0.277259476357695   0.624759652550081   1.0000000
B2   B   0.555563196128254   0.777924853488035   0.628580344419833   1.0000000
B2   B   0.889034766386870   0.777843547271364   0.628711807240586   1.0000000
B2   B   0.722361657359858   0.277770137205087   0.628580344419833   1.0000000
B2   B   0.055588473758962   0.777744859574282   0.121838019705745   1.0000000
B2   B   0.388808780884453   0.777843547271364   0.121288192759403   1.0000000
B2   B   0.221924830948138   0.277629082140711   0.122822111321607   1.0000000
B2   B   0.722361657359858   0.777924853488035   0.121419655580254   1.0000000
B2   B   0.555704251192588   0.277629082140711   0.122822111321608   1.0000000
B2   B   0.888899733992655   0.277799467984999   0.121299046589349   1.0000000
B2   B   0.055489786061860   0.444524552448876   0.628711807240586   1.0000000
B2   B   0.222103231847567   0.944206463695137   0.628396245251290   1.0000000
B2   B   0.555533865348050   0.944433599340674   0.628700953410346   1.0000000
B2   B   0.388629738178978   0.444703595154350   0.624759652550082   1.0000000
B2   B   0.888899733992649   0.944433599340674   0.628700953410346   1.0000000
B2   B   0.055489786061860   0.944298566946458   0.121288192759402   1.0000000
B2   B   0.722597035472008   0.444583304588437   0.628034240296348   1.0000000
B2   B   0.388808780884453   0.944298566946451   0.121288192759402   1.0000000
B2   B   0.221986269116796   0.444583304588437   0.121965759703772   1.0000000
B2   B   0.222103231847565   0.611230101485981   0.121603754748665   1.0000000
B2   B   0.556073856975372   0.444703595154350   0.125240347449945   1.0000000
B2   B   0.722243208463891   0.944486416927306   0.121557882498171   1.0000000
B2   B   0.889034766386870   0.444524552448876   0.121288192759403   1.0000000
B2   B   0.055588473758962   0.611176947517800   0.628161980294109   1.0000000
B2   B   0.221986269116796   0.110736297861439   0.628034240296340   1.0000000
B2   B   0.722597035472008   0.611347064216741   0.628034240296350   1.0000000
B2   B   0.555563196128254   0.110971675973398   0.628580344419833   1.0000000
B2   B   0.888846916406023   0.111090124869526   0.628442117501663   1.0000000


