data_1
_audit_creation_method   'vasp2cif'
_cell_length_a    17.52789999999977
_cell_length_b    17.52789999999977
_cell_length_c    15.0
_cell_angle_alpha    90.0
_cell_angle_beta    90.0
_cell_angle_gamma    119.99999999999916

_symmetry_space_group_name_H-M    'P 1'
loop_
_atom_site_label
_atom_site_type_symbol
_atom_site_fract_x
_atom_site_fract_y
_atom_site_fract_z
_atom_site_occupancy
B2   B   0.903642787337658   0.950744252776787   0.111518286040262   1.0000000
B2   B   0.905580707864853   0.094421061006149   0.111414445915888   1.0000000
B2   B   0.906220395073103   0.237404427474832   0.111282673577348   1.0000000
B2   B   0.906117508036970   0.380317109724566   0.111196285334857   1.0000000
B2   B   0.904616825929766   0.523066244554131   0.111178989608571   1.0000000
B2   B   0.902175494831442   0.665223928085365   0.111522668219187   1.0000000
B2   B   0.901000408780403   0.806542283632342   0.111422339413880   1.0000000
B2   B   0.047196896754216   0.952804825401784   0.111090878841486   1.0000000
B2   B   0.049257452990211   0.096358914854344   0.111518287230265   1.0000000
B2   B   0.049785508307332   0.238790460635546   0.111869491184149   1.0000000
B2   B   0.049047442816942   0.381215016586480   0.112441521616175   1.0000000
B2   B   0.047388550040775   0.524061693127652   0.112013470624346   1.0000000
B2   B   0.046112705737784   0.666873378659830   0.111048962047184   1.0000000
B2   B   0.046008504635277   0.809595836177956   0.110719128436462   1.0000000
B2   B   0.190405906842044   0.953993247403728   0.110719124900460   1.0000000
B2   B   0.193459426677660   0.099001334676595   0.111422337352880   1.0000000
B2   B   0.194997638797000   0.242087846475298   0.111708050199821   1.0000000
B2   B   0.193142075828997   0.382903427762093   0.111958582382899   1.0000000
B2   B   0.189947006631049   0.525024094223072   0.113153652455815   1.0000000
B2   B   0.188930940021486   0.667788968135274   0.112080626273894   1.0000000
B2   B   0.189344806551770   0.810656829786229   0.110827417912041   1.0000000
B2   B   0.333128288802172   0.953888935621215   0.111048959164185   1.0000000
B2   B   0.334777823761637   0.097826244917554   0.111522667215190   1.0000000
B2   B   0.341021654862439   0.246274117308117   0.112299518378956   1.0000000
B2   B   0.341042707901392   0.388099235069803   0.107510734410585   1.0000000
B2   B   0.332353276469222   0.527736704331317   0.107606717385137   1.0000000
B2   B   0.331110933880810   0.668890888731189   0.110951373241639   1.0000000
B2   B   0.332212683890720   0.811070744565512   0.112080624491896   1.0000000
B2   B   0.475939950788348   0.952613041410228   0.112013475920348   1.0000000
B2   B   0.476935475866866   0.095384843295234   0.111179003628574   1.0000000
B2   B   0.478604421644594   0.238790177486083   0.112788818453390   1.0000000
B2   B   0.493593020820643   0.393076919693159   0.115758607437277   1.0000000
B2   B   0.472265024657681   0.667648485781774   0.107606717056134   1.0000000
B2   B   0.474977692787930   0.810054823197947   0.113153652430811   1.0000000
B2   B   0.618786728303520   0.950954284907063   0.112441524349179   1.0000000
B2   B   0.619684548312434   0.093884105869031   0.111196292552856   1.0000000
B2   B   0.620499394632189   0.236217363959005   0.111442265494717   1.0000000
B2   B   0.622156121535304   0.377845677743694   0.114193210640101   1.0000000
B2   B   0.606924814371836   0.506408614890358   0.115758607263273   1.0000000
B2   B   0.611902422556198   0.658958890032603   0.107510731996587   1.0000000
B2   B   0.617098296967905   0.806859687784002   0.111958580547901   1.0000000
B2   B   0.761211261966448   0.950216239942668   0.111869493538148   1.0000000
B2   B   0.762597273428167   0.093781293934899   0.111282673081346   1.0000000
B2   B   0.763274430309447   0.236727192921553   0.110746742390546   1.0000000
B2   B   0.763784368420995   0.379502329994809   0.111442258917720   1.0000000
B2   B   0.761211691608918   0.521397350340410   0.112788811219390   1.0000000
B2   B   0.753727671769882   0.658980037694560   0.112299519937950   1.0000000
B2   B   0.757913809193698   0.805004024905000   0.111708051219826   1.0000000
N2   N   0.950807219461975   0.902993927772766   0.111306734636500   1.0000000
N2   N   0.953096090272240   0.046905629856760   0.111397911572310   1.0000000
N2   N   0.954062643099900   0.190077458116954   0.111462350153177   1.0000000
N2   N   0.953841955680242   0.332847217971263   0.111614445852470   1.0000000
N2   N   0.952525733242605   0.475704793295345   0.111240477668490   1.0000000
N2   N   0.950823075575984   0.618441847377284   0.111063391464975   1.0000000
N2   N   0.950128777451364   0.760621067350545   0.111162956517583   1.0000000
N2   N   0.094690541089792   0.905311224483211   0.110676094702675   1.0000000
N2   N   0.097007787146235   0.049194507031021   0.111306745143501   1.0000000
N2   N   0.098537850818222   0.192401972907999   0.111817608943833   1.0000000
N2   N   0.097517915713572   0.334239570514034   0.112347570013068   1.0000000
N2   N   0.095181839905786   0.476587094896347   0.112986608712602   1.0000000
N2   N   0.093936089043862   0.619468901304089   0.111721990834803   1.0000000
N2   N   0.093882444589115   0.762337110726945   0.110584447809564   1.0000000
N2   N   0.237664556900052   0.906119207789883   0.110584446886561   1.0000000
N2   N   0.239380675821454   0.049872999903632   0.111162946310579   1.0000000
N2   N   0.243819073961486   0.195876200405797   0.111694941264356   1.0000000
N2   N   0.243995352231946   0.338130536044288   0.110857214340238   1.0000000
N2   N   0.238133091210235   0.477984070447662   0.112931826792385   1.0000000
N2   N   0.236391477911250   0.620305111572488   0.112519153154628   1.0000000
N2   N   0.236886442653456   0.763115206789544   0.111546753062947   1.0000000
N2   N   0.380532742286909   0.906065534175138   0.111721981550802   1.0000000
N2   N   0.381559857936715   0.049178555276020   0.111063397024979   1.0000000
N2   N   0.383818677495367   0.193738376936303   0.112443467453227   1.0000000
N2   N   0.393756030827555   0.345131542453992   0.112184740353281   1.0000000
N2   N   0.382903471295060   0.483941024930824   0.099996542519455   1.0000000
N2   N   0.378213696328849   0.621788058506148   0.107082641315567   1.0000000
N2   N   0.379696687200510   0.763610380943750   0.112519160036625   1.0000000
N2   N   0.523414681420659   0.904819963157214   0.112986613980601   1.0000000
N2   N   0.524296863525654   0.047475810863394   0.111240495665485   1.0000000
N2   N   0.525340968669046   0.190201793204532   0.111543252877025   1.0000000
N2   N   0.527745099835970   0.333346253701318   0.114759027213366   1.0000000
N2   N   0.470780528351477   0.529221010391523   0.076951371406707   1.0000000
N2   N   0.516060521843177   0.617098028667939   0.099996546052451   1.0000000
N2   N   0.522017665854341   0.761868721872768   0.112931821765388   1.0000000
N2   N   0.665762184711961   0.902483868442433   0.112347568718068   1.0000000
N2   N   0.667154494518734   0.046159718701757   0.111614448563467   1.0000000
N2   N   0.667980054502237   0.188846199479397   0.110769461983636   1.0000000
N2   N   0.669079458945827   0.330922299223171   0.112167012258894   1.0000000
N2   N   0.666655681265685   0.472256675191032   0.114759022370364   1.0000000
N2   N   0.654870252735008   0.606245617322449   0.112184741661284   1.0000000
N2   N   0.661871067334710   0.756006297630061   0.110857209555237   1.0000000
N2   N   0.807599710350000   0.901463857268776   0.111817610616835   1.0000000
N2   N   0.809924311718048   0.045939140062106   0.111462353619176   1.0000000
N2   N   0.810814657097566   0.189187000333441   0.110829386281063   1.0000000
N2   N   0.811155428844603   0.332021588758764   0.110769456467636   1.0000000
N2   N   0.809799931836470   0.474660749365956   0.111543233548024   1.0000000
N2   N   0.806263456612696   0.616183073550633   0.112443466823224   1.0000000
N2   N   0.804125527438205   0.756182619701516   0.111694946016353   1.0000000


