data_1
_audit_creation_method   'vasp2cif'
_cell_length_a    17.5279
_cell_length_b    17.52789999999977
_cell_length_c    15.0
_cell_angle_alpha    90.0
_cell_angle_beta    90.0
_cell_angle_gamma    120.00000000000043

_symmetry_space_group_name_H-M    'P 1'
loop_
_atom_site_label
_atom_site_type_symbol
_atom_site_fract_x
_atom_site_fract_y
_atom_site_fract_z
_atom_site_occupancy
B2   B   0.904488051801185   0.952240681331796   0.111000619342930   1.0000000
B2   B   0.904673466129839   0.095232358262321   0.111035436852709   1.0000000
B2   B   0.904692842174997   0.238135314218607   0.111040831383339   1.0000000
B2   B   0.904541672559116   0.380993534681977   0.110993841305648   1.0000000
B2   B   0.904368120705698   0.523872012376003   0.110988810696856   1.0000000
B2   B   0.905490018076893   0.667065003737076   0.111053536070017   1.0000000
B2   B   0.904576243233045   0.809363171772717   0.111031230763512   1.0000000
B2   B   0.047231989097261   0.951987853734689   0.111002287909292   1.0000000
B2   B   0.047246000871381   0.094845224469369   0.111006702753819   1.0000000
B2   B   0.047662356851385   0.238067115814360   0.110999926294330   1.0000000
B2   B   0.047649705627292   0.381012998259571   0.111010154618790   1.0000000
B2   B   0.047220992546110   0.523845565367119   0.111006621521736   1.0000000
B2   B   0.047657878995916   0.666755893161361   0.111010412414985   1.0000000
B2   B   0.047708771688891   0.809602432139636   0.110992271618187   1.0000000
B2   B   0.190312373955616   0.952111381055495   0.110996129306694   1.0000000
B2   B   0.189853488957101   0.094359401885718   0.111043978860820   1.0000000
B2   B   0.190048620874531   0.237210739751485   0.111009938079987   1.0000000
B2   B   0.191090999950016   0.381122115054491   0.110982669553545   1.0000000
B2   B   0.189990350665580   0.524023942798281   0.111044273991701   1.0000000
B2   B   0.190222507437939   0.666891264444308   0.111046931800383   1.0000000
B2   B   0.190416782056227   0.809589721186408   0.110990098830166   1.0000000
B2   B   0.333323272825885   0.952259422218410   0.111015609759605   1.0000000
B2   B   0.333144821219514   0.094419552391384   0.111068849132898   1.0000000
B2   B   0.332551804632049   0.235954468541559   0.111046085128402   1.0000000
B2   B   0.333488018637815   0.377286345926016   0.110961926196369   1.0000000
B2   B   0.332898266163441   0.526400211508563   0.110931968149476   1.0000000
B2   B   0.333010378424407   0.667988442685302   0.111073821927981   1.0000000
B2   B   0.333317521091926   0.809998808815170   0.111055762209165   1.0000000
B2   B   0.476320807696035   0.952323705832142   0.111006744515931   1.0000000
B2   B   0.476236291044370   0.094933410574363   0.110992822817020   1.0000000
B2   B   0.475963761071236   0.237313585028806   0.111032288065657   1.0000000
B2   B   0.475657468426449   0.380161012634801   0.111130090747665   1.0000000
B2   B   0.475681463767283   0.666646476460604   0.111055013726933   1.0000000
B2   B   0.476389407656722   0.809543797053071   0.111062992912140   1.0000000
B2   B   0.619230454244914   0.952364274627027   0.111017846393056   1.0000000
B2   B   0.619100095815664   0.095409770582698   0.110998017077023   1.0000000
B2   B   0.618841778466587   0.238526209604356   0.111003089884274   1.0000000
B2   B   0.617427362196407   0.381162618183780   0.111025824664438   1.0000000
B2   B   0.619325029469161   0.666260632950045   0.111056411769023   1.0000000
B2   B   0.619609288878282   0.809366118003215   0.110999645600047   1.0000000
B2   B   0.761918421378221   0.952442585600129   0.110995050319401   1.0000000
B2   B   0.761892267515019   0.095311807870445   0.111043610409815   1.0000000
B2   B   0.761768141232264   0.238239493844711   0.111049622726554   1.0000000
B2   B   0.761523384159722   0.381156431648093   0.111000120403625   1.0000000
B2   B   0.762035636398691   0.524708899157194   0.111027911601152   1.0000000
B2   B   0.763119462002137   0.666874270029831   0.111056336943678   1.0000000
B2   B   0.761588622415471   0.809652171681596   0.110992744316311   1.0000000
C2   C   0.386052987776212   0.478831917591097   0.110802759343657   1.0000000
C2   C   0.480434554886953   0.527634157293132   0.111150870415758   1.0000000
C2   C   0.526717572447071   0.479321176267875   0.111373648809512   1.0000000
C2   C   0.621758928328261   0.526738235185564   0.111263845898085   1.0000000
N2   N   0.951895555539198   0.904296976191747   0.110997982890065   1.0000000
N2   N   0.952017926347246   0.047336165072323   0.110998109860946   1.0000000
N2   N   0.952321410145908   0.190544126120370   0.111015598683799   1.0000000
N2   N   0.952260111796031   0.333456306181652   0.110996804075274   1.0000000
N2   N   0.951837629079767   0.476262616881187   0.110968909371211   1.0000000
N2   N   0.952285182619982   0.619039601382929   0.111006105531892   1.0000000
N2   N   0.952288676837789   0.761855737177396   0.111020847973394   1.0000000
N2   N   0.094945902463120   0.904450675045512   0.110968944653493   1.0000000
N2   N   0.094572240546304   0.046930460967308   0.110998423208386   1.0000000
N2   N   0.094755740309934   0.189982581263403   0.110986091445201   1.0000000
N2   N   0.095553498568288   0.333523366748175   0.110984589247158   1.0000000
N2   N   0.094758528694823   0.476299659456910   0.111008155948281   1.0000000
N2   N   0.094957380119342   0.619083056635877   0.111006747532245   1.0000000
N2   N   0.095071252881754   0.761822925674362   0.110972745540210   1.0000000
N2   N   0.237970667720657   0.904534255605790   0.110979261594081   1.0000000
N2   N   0.237680405698784   0.046857148348532   0.111032900517138   1.0000000
N2   N   0.237095211409580   0.189072484648397   0.111017958224581   1.0000000
N2   N   0.238128748599011   0.332531495428342   0.110978518684125   1.0000000
N2   N   0.237820510041126   0.476862246111302   0.110979179428992   1.0000000
N2   N   0.237802430353536   0.619434171632086   0.111047691742178   1.0000000
N2   N   0.237984903758441   0.762035466569767   0.111014210745368   1.0000000
N2   N   0.381066550970561   0.904872548062099   0.111010747901229   1.0000000
N2   N   0.380990028326795   0.047043106927156   0.111009717122461   1.0000000
N2   N   0.380608600420086   0.188729623698739   0.111046652338396   1.0000000
N2   N   0.379583161896022   0.329471975134698   0.111017594154480   1.0000000
N2   N   0.380805585036520   0.620900137367827   0.111028507914983   1.0000000
N2   N   0.381104540984015   0.762725832945105   0.111059375828088   1.0000000
N2   N   0.523988224785173   0.904672370208869   0.111014309725914   1.0000000
N2   N   0.523983915982979   0.047500464195345   0.110962329248707   1.0000000
N2   N   0.523959417717507   0.190089788874282   0.110989103653897   1.0000000
N2   N   0.523455016967362   0.331970571779015   0.111018601600856   1.0000000
N2   N   0.524026062063368   0.618020513293846   0.111062328044961   1.0000000
N2   N   0.524077646840012   0.761503521235681   0.111028470870749   1.0000000
N2   N   0.666785116635085   0.904623471228807   0.110984530549219   1.0000000
N2   N   0.666708948033495   0.047695565783204   0.111005245174204   1.0000000
N2   N   0.666652784630716   0.190935184166909   0.111005685909137   1.0000000
N2   N   0.666410905434023   0.334690990215518   0.110976334786150   1.0000000
N2   N   0.665888849078897   0.479324713173786   0.111072593505162   1.0000000
N2   N   0.666411996899872   0.616243312330966   0.111095813884430   1.0000000
N2   N   0.666981893723183   0.761536991769791   0.110978614919062   1.0000000
N2   N   0.809378414427378   0.904661014118228   0.110969602271143   1.0000000
N2   N   0.809471620039082   0.047686202927630   0.111015537989308   1.0000000
N2   N   0.809423791941786   0.190645742395288   0.111037840441599   1.0000000
N2   N   0.809196426151209   0.333630944545869   0.111007537259848   1.0000000
N2   N   0.808712461282848   0.476496115011773   0.110972063650522   1.0000000
N2   N   0.810017937842205   0.619390666147279   0.111030777443501   1.0000000
N2   N   0.808915483834962   0.761255474025173   0.111002271079890   1.0000000


