data_1
_audit_creation_method   'vasp2cif'
_cell_length_a    14.93631414619966
_cell_length_b    14.936314146199727
_cell_length_c    13.341276283792837
_cell_angle_alpha    90.0
_cell_angle_beta    90.0
_cell_angle_gamma    119.99999999999984

_symmetry_space_group_name_H-M    'P 1'
loop_
_atom_site_label
_atom_site_type_symbol
_atom_site_fract_x
_atom_site_fract_y
_atom_site_fract_z
_atom_site_occupancy
C2   C   0.593320169713692   0.378498458602417   0.375000000000000   1.0000000
C2   C   0.438214994834209   0.384697598896533   0.375000000000000   1.0000000
C2   C   0.547521333929321   0.436950910747224   0.375000000000000   1.0000000
N2   N   0.111069410310652   0.055510988905072   0.125148383860495   1.0000000
N2   N   0.611013208401395   0.555507890607194   0.124296312001882   1.0000000
N2   N   0.444386501858209   0.055525501314417   0.125165812317531   1.0000000
N2   N   0.944387027619572   0.555493184365391   0.124521699783549   1.0000000
N2   N   0.777720045734306   0.055493004877389   0.125048525888519   1.0000000
N2   N   0.111057848749442   0.722163822713955   0.625048215077669   1.0000000
N2   N   0.444371579140118   0.722135955584559   0.624893622593877   1.0000000
N2   N   0.277748470894994   0.222186705665967   0.624552721659939   1.0000000
N2   N   0.777722909367441   0.722172053648338   0.625211095039100   1.0000000
N2   N   0.611050006451435   0.222203525682644   0.624979386976443   1.0000000
N2   N   0.944408292527117   0.222145291495490   0.624947722738829   1.0000000
N2   N   0.277717782548719   0.722154564997166   0.125030080712400   1.0000000
N2   N   0.111061960183919   0.222151664832631   0.125166906120732   1.0000000
N2   N   0.444417276611090   0.222213730071895   0.125340321094958   1.0000000
N2   N   0.611041566115694   0.722159187433593   0.124947243259899   1.0000000
N2   N   0.944409052218096   0.722194057876580   0.124748741473613   1.0000000
N2   N   0.777756478117716   0.222158719260516   0.124827213619317   1.0000000
N2   N   0.111068759017561   0.888853440562709   0.624947528976348   1.0000000
N2   N   0.444378736555404   0.888837320913941   0.624955593393615   1.0000000
N2   N   0.277731760803322   0.388805785630328   0.624622850591355   1.0000000
N2   N   0.611094461633842   0.388868586472846   0.625345921001793   1.0000000
N2   N   0.777715360267172   0.888828159075359   0.624924918482468   1.0000000
N2   N   0.944422547316639   0.388812999243030   0.625206789696412   1.0000000
N2   N   0.111071026768333   0.388809685220247   0.125128880039636   1.0000000
N2   N   0.277721916482922   0.888843479678641   0.125045123525335   1.0000000
N2   N   0.611036898369936   0.888834192810067   0.125014858513238   1.0000000
N2   N   0.444384161661664   0.388824925118966   0.124861379341980   1.0000000
N2   N   0.944403428617797   0.888846670757406   0.125049421676301   1.0000000
N2   N   0.777766650348398   0.388771431774299   0.123601658954023   1.0000000
N2   N   0.277716747068165   0.555469362038618   0.624812047495352   1.0000000
N2   N   0.111069410310652   0.055510988905072   0.624851616139506   1.0000000
N2   N   0.611013208401395   0.555507890607194   0.625703687998118   1.0000000
N2   N   0.444386501858209   0.055525501314417   0.624834187682467   1.0000000
N2   N   0.944387027619572   0.555493184365391   0.625478300216451   1.0000000
N2   N   0.111056801440432   0.555485224903619   0.125016582383714   1.0000000
N2   N   0.777720045734306   0.055493004877389   0.624951474111481   1.0000000
N2   N   0.277735563298939   0.055528096480370   0.125190899281809   1.0000000
N2   N   0.444367536097537   0.555448681733021   0.125310249806770   1.0000000
N2   N   0.777737567151405   0.555581779142813   0.123341053676382   1.0000000
N2   N   0.611048571480843   0.055524070326166   0.125075431200554   1.0000000
N2   N   0.444367536097537   0.555448681733021   0.624689750193230   1.0000000
N2   N   0.944392972201188   0.055487183053451   0.125051682868066   1.0000000
N2   N   0.277717782548719   0.722154564997166   0.624969919287600   1.0000000
N2   N   0.111061960183919   0.222151664832631   0.624833093879275   1.0000000
N2   N   0.444417276611090   0.222213730071895   0.624659678905042   1.0000000
N2   N   0.611041566115694   0.722159187433593   0.625052756740101   1.0000000
N2   N   0.944409052218096   0.722194057876580   0.625251258526387   1.0000000
N2   N   0.777756478117716   0.222158719260516   0.625172786380682   1.0000000
N2   N   0.111057848749442   0.722163822713955   0.124951784922331   1.0000000
N2   N   0.444371579140118   0.722135955584559   0.125106377406124   1.0000000
N2   N   0.277748470894994   0.222186705665967   0.125447278340061   1.0000000
N2   N   0.777722909367441   0.722172053648338   0.124788904960900   1.0000000
N2   N   0.611050006451435   0.222203525682644   0.125020613023564   1.0000000
N2   N   0.944408292527117   0.222145291495490   0.125052277261171   1.0000000
N2   N   0.111071026768333   0.388809685220247   0.624871119960363   1.0000000
N2   N   0.277721916482922   0.888843479678641   0.624954876474665   1.0000000
N2   N   0.611036898369936   0.888834192810067   0.624985141486762   1.0000000
N2   N   0.444384161661664   0.388824925118966   0.625138620658020   1.0000000
N2   N   0.944403428617797   0.888846670757406   0.624950578323700   1.0000000
N2   N   0.111068759017561   0.888853440562709   0.125052471023652   1.0000000
N2   N   0.777766650348398   0.388771431774299   0.626398341045977   1.0000000
N2   N   0.444378736555404   0.888837320913941   0.125044406606384   1.0000000
N2   N   0.277731760803322   0.388805785630328   0.125377149408645   1.0000000
N2   N   0.277716747068165   0.555469362038618   0.125187952504649   1.0000000
N2   N   0.611094461633842   0.388868586472846   0.124654078998207   1.0000000
N2   N   0.777715360267172   0.888828159075359   0.125075081517532   1.0000000
N2   N   0.944422547316639   0.388812999243030   0.124793210303589   1.0000000
N2   N   0.111056801440432   0.555485224903619   0.624983417616285   1.0000000
N2   N   0.277735563298939   0.055528096480370   0.624809100718191   1.0000000
N2   N   0.777737567151405   0.555581779142813   0.626658946323617   1.0000000
N2   N   0.611048571480843   0.055524070326166   0.624924568799447   1.0000000
N2   N   0.944392972201188   0.055487183053451   0.624948317131934   1.0000000
N2   N   0.053310601790189   0.110113445104122   0.375000000000000   1.0000000
N2   N   0.557872404700061   0.609873685076777   0.375000000000000   1.0000000
N2   N   0.386804010569394   0.111184134259494   0.375000000000000   1.0000000
N2   N   0.893031417433096   0.610522889437619   0.375000000000000   1.0000000
N2   N   0.722759173262059   0.116454293427374   0.375000000000000   1.0000000
N2   N   0.055532653779167   0.777767826196604   0.875000000000000   1.0000000
N2   N   0.388863039992894   0.777770654252501   0.875000000000000   1.0000000
N2   N   0.222198485323611   0.277764312803565   0.875000000000000   1.0000000
N2   N   0.722188470958986   0.777768194240056   0.875000000000000   1.0000000
N2   N   0.555521682738407   0.277759529545639   0.875000000000000   1.0000000
N2   N   0.888859363675059   0.277760779046661   0.875000000000000   1.0000000
N2   N   0.225976467579829   0.779794183988219   0.375000000000000   1.0000000
N2   N   0.053824935329560   0.278108516984009   0.375000000000000   1.0000000
N2   N   0.384847075164633   0.278720117763144   0.375000000000000   1.0000000
N2   N   0.557725193538854   0.778001888258219   0.375000000000000   1.0000000
N2   N   0.889001968095771   0.775089298534771   0.375000000000000   1.0000000
N2   N   0.723073759462685   0.290765702651623   0.375000000000000   1.0000000
N2   N   0.055528981960741   0.944434324965662   0.875000000000000   1.0000000
N2   N   0.388864667909055   0.944434432112258   0.875000000000000   1.0000000
N2   N   0.222199246119603   0.444429822659273   0.875000000000000   1.0000000
N2   N   0.555522691628285   0.444433755590961   0.875000000000000   1.0000000
N2   N   0.722189646595295   0.944429601631762   0.875000000000000   1.0000000
N2   N   0.888865254660024   0.444430353793750   0.875000000000000   1.0000000
N2   N   0.057079043446709   0.446113027886046   0.375000000000000   1.0000000
N2   N   0.222400213040573   0.944428350230429   0.375000000000000   1.0000000
N2   N   0.557557091141759   0.946874340236187   0.375000000000000   1.0000000
N2   N   0.387857325618682   0.440082511982094   0.375000000000000   1.0000000
N2   N   0.888054568486449   0.943106183388519   0.375000000000000   1.0000000
N2   N   0.222197096892135   0.611098147125360   0.875000000000000   1.0000000
N2   N   0.055527823607861   0.111094926206931   0.875000000000000   1.0000000
N2   N   0.555517966891490   0.611106758605542   0.875000000000000   1.0000000
N2   N   0.388863783627550   0.111096535258246   0.875000000000000   1.0000000
N2   N   0.888867480318990   0.611099399008362   0.875000000000000   1.0000000
N2   N   0.061570257853972   0.614077740502773   0.375000000000000   1.0000000
N2   N   0.722185592852988   0.111086813837149   0.875000000000000   1.0000000
N2   N   0.220091905161227   0.110247740332482   0.375000000000000   1.0000000
N2   N   0.391503474288077   0.609938782277783   0.375000000000000   1.0000000
N2   N   0.724194638548031   0.600131617416928   0.375000000000000   1.0000000
N2   N   0.556950785089821   0.115470203555230   0.375000000000000   1.0000000
N2   N   0.388861804050878   0.611101173095985   0.875000000000000   1.0000000
N2   N   0.887803142969218   0.111961742459627   0.375000000000000   1.0000000
N2   N   0.222200277183379   0.777769113529482   0.875000000000000   1.0000000
N2   N   0.055528739339632   0.277761922819552   0.875000000000000   1.0000000
N2   N   0.388862017718258   0.277763992119409   0.875000000000000   1.0000000
N2   N   0.555521543900410   0.777769984187709   0.875000000000000   1.0000000
N2   N   0.888861086411004   0.777768136992850   0.875000000000000   1.0000000
N2   N   0.722182721147393   0.277747322645332   0.875000000000000   1.0000000
N2   N   0.057420633292457   0.777829902886362   0.375000000000000   1.0000000
N2   N   0.392046030842235   0.778922200050876   0.375000000000000   1.0000000
N2   N   0.218811615756176   0.276427505839895   0.375000000000000   1.0000000
N2   N   0.723317078310552   0.773826710575754   0.375000000000000   1.0000000
N2   N   0.550000556285201   0.276851417882653   0.375000000000000   1.0000000
N2   N   0.888225211994949   0.280786352059984   0.375000000000000   1.0000000
N2   N   0.055529489855554   0.444429237217683   0.875000000000000   1.0000000
N2   N   0.222198597327644   0.944435844182463   0.875000000000000   1.0000000
N2   N   0.555523050552731   0.944431349433781   0.875000000000000   1.0000000
N2   N   0.388865309301233   0.444436450052498   0.875000000000000   1.0000000
N2   N   0.888861242691073   0.944431929455016   0.875000000000000   1.0000000
N2   N   0.054510994536551   0.943187189654307   0.375000000000000   1.0000000
N2   N   0.722187652365952   0.444423594814411   0.875000000000000   1.0000000
N2   N   0.391156590775186   0.946782874900341   0.375000000000000   1.0000000
N2   N   0.222773694534171   0.444394171087495   0.375000000000000   1.0000000
N2   N   0.226061990692217   0.612343958909756   0.375000000000000   1.0000000
N2   N   0.722913300197697   0.945044053308703   0.375000000000000   1.0000000
N2   N   0.892209575519700   0.449357978077827   0.375000000000000   1.0000000
N2   N   0.055533763012233   0.611097660933708   0.875000000000000   1.0000000
N2   N   0.222196094311592   0.111098509488197   0.875000000000000   1.0000000
N2   N   0.722182185048909   0.611102725523769   0.875000000000000   1.0000000
N2   N   0.555522338581230   0.111089116524783   0.875000000000000   1.0000000
N2   N   0.888859193230550   0.111092990079564   0.875000000000000   1.0000000
B2   B   0.108582768733134   0.054110839074203   0.375000000000000   1.0000000
B2   B   0.613679420059066   0.553332065582156   0.375000000000000   1.0000000
B2   B   0.445436056948225   0.057945263715363   0.375000000000000   1.0000000
B2   B   0.951515303654796   0.559285590522350   0.375000000000000   1.0000000
B2   B   0.776998371172348   0.057715832290701   0.375000000000000   1.0000000
B2   B   0.111063874245762   0.722190848616331   0.875000000000000   1.0000000
B2   B   0.444424293236556   0.722216723567107   0.875000000000000   1.0000000
B2   B   0.277756112012850   0.222212539273199   0.875000000000000   1.0000000
B2   B   0.777739462558586   0.722190018845957   0.875000000000000   1.0000000
B2   B   0.611109007829820   0.222225520293701   0.875000000000000   1.0000000
B2   B   0.944398848880603   0.222211382389501   0.875000000000000   1.0000000
B2   B   0.281087930379686   0.723625853101062   0.375000000000000   1.0000000
B2   B   0.107570194722834   0.221093399504152   0.375000000000000   1.0000000
B2   B   0.438723850318858   0.220631438951002   0.375000000000000   1.0000000
B2   B   0.612646628702496   0.721092431846176   0.375000000000000   1.0000000
B2   B   0.945802407206281   0.720648251506399   0.375000000000000   1.0000000
B2   B   0.777112075408158   0.230251215052511   0.375000000000000   1.0000000
B2   B   0.111062380064746   0.888849468483282   0.875000000000000   1.0000000
B2   B   0.444421829954670   0.888873640178763   0.875000000000000   1.0000000
B2   B   0.277761752431317   0.388891422271730   0.875000000000000   1.0000000
B2   B   0.611123874800976   0.388912539314861   0.875000000000000   1.0000000
B2   B   0.777740742995960   0.888860776818179   0.875000000000000   1.0000000
B2   B   0.944397262797046   0.388884079032769   0.875000000000000   1.0000000
B2   B   0.111044604880444   0.389455570614793   0.375000000000000   1.0000000
B2   B   0.279959787808620   0.890492408509466   0.375000000000000   1.0000000
B2   B   0.612268356026746   0.889725401644543   0.375000000000000   1.0000000
B2   B   0.943082405366126   0.886545055043739   0.375000000000000   1.0000000
B2   B   0.781106088970541   0.410222558297281   0.375000000000000   1.0000000
B2   B   0.277750368113590   0.555551561816932   0.875000000000000   1.0000000
B2   B   0.111063466006819   0.055522539197107   0.875000000000000   1.0000000
B2   B   0.611105066354486   0.555557782538367   0.875000000000000   1.0000000
B2   B   0.444430617310230   0.055539743458126   0.875000000000000   1.0000000
B2   B   0.944397065870135   0.555536019801176   0.875000000000000   1.0000000
B2   B   0.115025488541011   0.557218175599276   0.375000000000000   1.0000000
B2   B   0.777742439351289   0.055536515307240   0.875000000000000   1.0000000
B2   B   0.275787668909828   0.054666007587011   0.375000000000000   1.0000000
B2   B   0.447263122451000   0.554334150724530   0.375000000000000   1.0000000
B2   B   0.781788596973571   0.539682154063115   0.375000000000000   1.0000000
B2   B   0.612183970551610   0.058739093052011   0.375000000000000   1.0000000
B2   B   0.444441181997111   0.555565532036385   0.875000000000000   1.0000000
B2   B   0.942201760418575   0.054653466359988   0.375000000000000   1.0000000
B2   B   0.277744592429945   0.722205771013247   0.875000000000000   1.0000000
B2   B   0.111068119235910   0.222205234193136   0.875000000000000   1.0000000
B2   B   0.444445659511461   0.222223865579122   0.875000000000000   1.0000000
B2   B   0.611088873669217   0.722210409018113   0.875000000000000   1.0000000
B2   B   0.944394324334135   0.722179973215488   0.875000000000000   1.0000000
B2   B   0.777746624411496   0.222217093669836   0.875000000000000   1.0000000
B2   B   0.115054448298915   0.724359199326986   0.375000000000000   1.0000000
B2   B   0.446903236458286   0.722141691822633   0.375000000000000   1.0000000
B2   B   0.272658727682417   0.220495566261492   0.375000000000000   1.0000000
B2   B   0.777959570021761   0.714513594349713   0.375000000000000   1.0000000
B2   B   0.613265973655470   0.226994905880741   0.375000000000000   1.0000000
B2   B   0.942428055171343   0.223468535617762   0.375000000000000   1.0000000
B2   B   0.111068422916572   0.388881713458129   0.875000000000000   1.0000000
B2   B   0.277744242854927   0.888862875209107   0.875000000000000   1.0000000
B2   B   0.611084634451707   0.888873258670979   0.875000000000000   1.0000000
B2   B   0.444458530417045   0.388908077067884   0.875000000000000   1.0000000
B2   B   0.944394775501073   0.888846977003879   0.875000000000000   1.0000000
B2   B   0.111079689358705   0.888322818532116   0.375000000000000   1.0000000
B2   B   0.777750533178409   0.388892329056384   0.875000000000000   1.0000000
B2   B   0.446691322501503   0.890566254298239   0.375000000000000   1.0000000
B2   B   0.275504435663018   0.386936719107509   0.375000000000000   1.0000000
B2   B   0.280256772081871   0.555756219476481   0.375000000000000   1.0000000
B2   B   0.777278454860827   0.886561276516135   0.375000000000000   1.0000000
B2   B   0.945242766737644   0.391999064525754   0.375000000000000   1.0000000
B2   B   0.111065317860917   0.555540927021654   0.875000000000000   1.0000000
B2   B   0.277747824548199   0.055530624782857   0.875000000000000   1.0000000
B2   B   0.777748816557637   0.555539554533778   0.875000000000000   1.0000000
B2   B   0.611091185906341   0.055542341154636   0.875000000000000   1.0000000
B2   B   0.944396881896904   0.055527504533195   0.875000000000000   1.0000000
B2   B   0.055459928281657   0.111021972514290   0.125038054836285   1.0000000
B2   B   0.555566817381109   0.611020411336020   0.124852423027658   1.0000000
B2   B   0.388849920565187   0.111078136399625   0.125031489421693   1.0000000
B2   B   0.888761279647170   0.611011030673986   0.124467431397839   1.0000000
B2   B   0.722218308100757   0.111111297777852   0.125005669678330   1.0000000
B2   B   0.055434901604416   0.777661135221763   0.625014324595364   1.0000000
B2   B   0.388812888258402   0.777693565344834   0.624984900602538   1.0000000
B2   B   0.222131421452748   0.277716661031224   0.624874477201926   1.0000000
B2   B   0.722182226541880   0.777679451415377   0.625010795524960   1.0000000
B2   B   0.555669349340470   0.277907523660786   0.625276988665804   1.0000000
B2   B   0.888847685772281   0.277744900437795   0.625066327652895   1.0000000
B2   B   0.222103697271299   0.777670471253604   0.124999829501267   1.0000000
B2   B   0.055464071735162   0.277709405622490   0.125051236986468   1.0000000
B2   B   0.388899942234458   0.277828375293203   0.124914528655669   1.0000000
B2   B   0.555520666799857   0.777703394234632   0.125014857651465   1.0000000
B2   B   0.888806941713539   0.777660497023512   0.124935727241993   1.0000000
B2   B   0.722309594836304   0.277863728203207   0.124587278615273   1.0000000
B2   B   0.055454727933582   0.944333846955868   0.624961132823095   1.0000000
B2   B   0.388814146942124   0.944365940692042   0.624987230877960   1.0000000
B2   B   0.222132455907643   0.444375211519418   0.624854265681029   1.0000000
B2   B   0.555621045159176   0.444443260810091   0.625123458114873   1.0000000
B2   B   0.722172487235067   0.944379070989774   0.624957329074297   1.0000000
B2   B   0.888809688715753   0.444382779909818   0.625487219993711   1.0000000
B2   B   0.055457218100932   0.444376880888025   0.125016945518642   1.0000000
B2   B   0.222120226074496   0.944340009481360   0.125020218192282   1.0000000
B2   B   0.555513624170514   0.944401560490312   0.125011184022665   1.0000000
B2   B   0.388886820460735   0.444379441179105   0.124988007570407   1.0000000
B2   B   0.888813175358439   0.944345302261959   0.125041888108040   1.0000000
B2   B   0.722333728979283   0.444493013174208   0.124848481874515   1.0000000
B2   B   0.222111391749340   0.611026410655511   0.624952679291842   1.0000000
B2   B   0.055459928281657   0.111021972514290   0.624961945163723   1.0000000
B2   B   0.555566817381109   0.611020411336020   0.625147576972342   1.0000000
B2   B   0.388849920565187   0.111078136399625   0.624968510578306   1.0000000
B2   B   0.888761279647170   0.611011030673986   0.625532568602161   1.0000000
B2   B   0.055407650956224   0.611006658352089   0.124934027368480   1.0000000
B2   B   0.722218308100757   0.111111297777852   0.624994330321670   1.0000000
B2   B   0.222135554705528   0.111031409889636   0.125108007570668   1.0000000
B2   B   0.388828219639387   0.611024553436748   0.125146144678347   1.0000000
B2   B   0.722204451862697   0.610998264881659   0.124357387840850   1.0000000
B2   B   0.555553497672560   0.111121054044383   0.125000046767504   1.0000000
B2   B   0.388828219639387   0.611024553436748   0.624853855321653   1.0000000
B2   B   0.888826464028844   0.111051151458051   0.125026920753889   1.0000000
B2   B   0.222103697271299   0.777670471253604   0.625000170498734   1.0000000
B2   B   0.055464071735162   0.277709405622490   0.624948763013532   1.0000000
B2   B   0.388899942234458   0.277828375293203   0.625085471344331   1.0000000
B2   B   0.555520666799857   0.777703394234632   0.624985142348534   1.0000000
B2   B   0.888806941713539   0.777660497023512   0.625064272758007   1.0000000
B2   B   0.722309594836304   0.277863728203207   0.625412721384727   1.0000000
B2   B   0.055434901604416   0.777661135221763   0.124985675404636   1.0000000
B2   B   0.388812888258402   0.777693565344834   0.125015099397469   1.0000000
B2   B   0.222131421452748   0.277716661031224   0.125125522798074   1.0000000
B2   B   0.722182226541880   0.777679451415377   0.124989204475040   1.0000000
B2   B   0.555669349340470   0.277907523660786   0.124723011334196   1.0000000
B2   B   0.888847685772281   0.277744900437795   0.124933672347106   1.0000000
B2   B   0.055457218100932   0.444376880888025   0.624983054481358   1.0000000
B2   B   0.222120226074496   0.944340009481360   0.624979781807718   1.0000000
B2   B   0.555513624170514   0.944401560490312   0.624988815977335   1.0000000
B2   B   0.388886820460735   0.444379441179105   0.625011992429593   1.0000000
B2   B   0.888813175358439   0.944345302261959   0.624958111891960   1.0000000
B2   B   0.055454727933582   0.944333846955868   0.125038867176905   1.0000000
B2   B   0.722333728979283   0.444493013174208   0.625151518125486   1.0000000
B2   B   0.388814146942124   0.944365940692042   0.125012769122040   1.0000000
B2   B   0.222132455907643   0.444375211519418   0.125145734318971   1.0000000
B2   B   0.222111391749340   0.611026410655511   0.125047320708158   1.0000000
B2   B   0.555621045159176   0.444443260810091   0.124876541885127   1.0000000
B2   B   0.722172487235067   0.944379070989774   0.125042670925704   1.0000000
B2   B   0.888809688715753   0.444382779909818   0.124512780006288   1.0000000
B2   B   0.055407650956224   0.611006658352089   0.625065972631520   1.0000000
B2   B   0.222135554705528   0.111031409889636   0.624891992429331   1.0000000
B2   B   0.722204451862697   0.610998264881659   0.625642612159150   1.0000000
B2   B   0.555553497672560   0.111121054044383   0.624999953232496   1.0000000
B2   B   0.888826464028844   0.111051151458051   0.624973079246111   1.0000000


