data_1
_audit_creation_method   'vasp2cif'
_cell_length_a    14.93631414619966
_cell_length_b    14.936314146199727
_cell_length_c    13.341276283792837
_cell_angle_alpha    90.0
_cell_angle_beta    90.0
_cell_angle_gamma    119.99999999999984

_symmetry_space_group_name_H-M    'P 1'
loop_
_atom_site_label
_atom_site_type_symbol
_atom_site_fract_x
_atom_site_fract_y
_atom_site_fract_z
_atom_site_occupancy
O2   O   0.444572666078527   0.392666114012791   0.375000000000000   1.0000000
N2   N   0.548779084619306   0.439547726146399   0.375000000000000   1.0000000
N2   N   0.111108803111340   0.055525034287992   0.125167734846112   1.0000000
N2   N   0.611085044479172   0.555507825809994   0.126062406310012   1.0000000
N2   N   0.444445965938630   0.055556277442831   0.125172263101041   1.0000000
N2   N   0.944440104854977   0.555541134313380   0.125145295891235   1.0000000
N2   N   0.777779338896065   0.055516413487205   0.125105742082592   1.0000000
N2   N   0.111101764514722   0.722208277478885   0.624876229664140   1.0000000
N2   N   0.444424754080984   0.722207489677127   0.624827346223423   1.0000000
N2   N   0.277770398127439   0.222208971411526   0.624316782157633   1.0000000
N2   N   0.777777716049276   0.722189007237164   0.624711272298225   1.0000000
N2   N   0.611134218069578   0.222211002411026   0.624799242038403   1.0000000
N2   N   0.944450684168839   0.222190033142566   0.624913540728184   1.0000000
N2   N   0.277760815675927   0.722215700937224   0.125121255160818   1.0000000
N2   N   0.111100000276386   0.222187587659270   0.125179353463930   1.0000000
N2   N   0.444449962016353   0.222229626518181   0.125570519011455   1.0000000
N2   N   0.611096107402374   0.722184736827210   0.125293245003149   1.0000000
N2   N   0.944446278025666   0.722204615818192   0.125166057165057   1.0000000
N2   N   0.777793682653735   0.222194828035042   0.125104326304253   1.0000000
N2   N   0.111111668305178   0.888871176279107   0.624870922522248   1.0000000
N2   N   0.444432412052641   0.888884635049437   0.624871745857773   1.0000000
N2   N   0.277768763925108   0.388862866462293   0.624338477267622   1.0000000
N2   N   0.611127379630672   0.388880955540860   0.624917386906208   1.0000000
N2   N   0.777775043357777   0.888846568301903   0.624859764352647   1.0000000
N2   N   0.944447818965456   0.388871147346882   0.624882225274810   1.0000000
N2   N   0.111106186726920   0.388874032767231   0.125161191269200   1.0000000
N2   N   0.277772838565009   0.888882845261267   0.125121994763012   1.0000000
N2   N   0.611096922609445   0.888863635066605   0.125115342870714   1.0000000
N2   N   0.444441967526662   0.388879502954431   0.126643917409840   1.0000000
N2   N   0.944451641463426   0.888860838876218   0.125120612213730   1.0000000
N2   N   0.777795361279785   0.388863013491732   0.125129819299966   1.0000000
N2   N   0.277761294892097   0.555544454304071   0.624777165567666   1.0000000
N2   N   0.111108803111340   0.055525034287992   0.624832265153889   1.0000000
N2   N   0.611085044479172   0.555507825809994   0.623937593689988   1.0000000
N2   N   0.444445965938630   0.055556277442831   0.624827736898961   1.0000000
N2   N   0.944440104854977   0.555541134313380   0.624854704108765   1.0000000
N2   N   0.111096196545475   0.555544766859889   0.125121663238151   1.0000000
N2   N   0.777779338896065   0.055516413487205   0.624894257917408   1.0000000
N2   N   0.277778279899421   0.055547780490589   0.125226783535864   1.0000000
N2   N   0.444440260197242   0.555538106640218   0.125731409989063   1.0000000
N2   N   0.777776396820084   0.555551242154360   0.125340629480596   1.0000000
N2   N   0.611110416513818   0.055540300704505   0.125136643228403   1.0000000
N2   N   0.444440260197242   0.555538106640218   0.624268590010937   1.0000000
N2   N   0.944446228646120   0.055512976727234   0.125099580774269   1.0000000
N2   N   0.277760815675927   0.722215700937224   0.624878744839182   1.0000000
N2   N   0.111100000276386   0.222187587659270   0.624820646536071   1.0000000
N2   N   0.444449962016353   0.222229626518181   0.624429480988545   1.0000000
N2   N   0.611096107402374   0.722184736827210   0.624706754996852   1.0000000
N2   N   0.944446278025666   0.722204615818192   0.624833942834943   1.0000000
N2   N   0.777793682653735   0.222194828035042   0.624895673695747   1.0000000
N2   N   0.111101764514722   0.722208277478885   0.125123770335860   1.0000000
N2   N   0.444424754080984   0.722207489677127   0.125172653776578   1.0000000
N2   N   0.277770398127439   0.222208971411526   0.125683217842369   1.0000000
N2   N   0.777777716049276   0.722189007237164   0.125288727701775   1.0000000
N2   N   0.611134218069578   0.222211002411026   0.125200757961596   1.0000000
N2   N   0.944450684168839   0.222190033142566   0.125086459271816   1.0000000
N2   N   0.111106186726920   0.388874032767231   0.624838808730800   1.0000000
N2   N   0.277772838565009   0.888882845261267   0.624878005236988   1.0000000
N2   N   0.611096922609445   0.888863635066605   0.624884657129287   1.0000000
N2   N   0.444441967526662   0.388879502954431   0.623356082590160   1.0000000
N2   N   0.944451641463426   0.888860838876218   0.624879387786269   1.0000000
N2   N   0.111111668305178   0.888871176279107   0.125129077477753   1.0000000
N2   N   0.777795361279785   0.388863013491732   0.624870180700036   1.0000000
N2   N   0.444432412052641   0.888884635049437   0.125128254142227   1.0000000
N2   N   0.277768763925108   0.388862866462293   0.125661522732377   1.0000000
N2   N   0.277761294892097   0.555544454304071   0.125222834432333   1.0000000
N2   N   0.611127379630672   0.388880955540860   0.125082613093793   1.0000000
N2   N   0.777775043357777   0.888846568301903   0.125140235647352   1.0000000
N2   N   0.944447818965456   0.388871147346882   0.125117774725189   1.0000000
N2   N   0.111096196545475   0.555544766859889   0.624878336761847   1.0000000
N2   N   0.277778279899421   0.055547780490589   0.624773216464136   1.0000000
N2   N   0.777776396820084   0.555551242154360   0.624659370519405   1.0000000
N2   N   0.611110416513818   0.055540300704505   0.624863356771597   1.0000000
N2   N   0.944446228646120   0.055512976727234   0.624900419225731   1.0000000
N2   N   0.055272996328517   0.110724450597883   0.375000000000000   1.0000000
N2   N   0.554414941302017   0.611286708159053   0.375000000000000   1.0000000
N2   N   0.390003731287973   0.114418273414781   0.375000000000000   1.0000000
N2   N   0.888471888208953   0.610846418643021   0.375000000000000   1.0000000
N2   N   0.722768932685452   0.110084846506399   0.375000000000000   1.0000000
N2   N   0.055555839968659   0.777773678568314   0.875000000000000   1.0000000
N2   N   0.388894487536914   0.777773349369672   0.875000000000000   1.0000000
N2   N   0.222222778430447   0.277774579235340   0.875000000000000   1.0000000
N2   N   0.722218485189344   0.777772133044549   0.875000000000000   1.0000000
N2   N   0.555555630055512   0.277769418872966   0.875000000000000   1.0000000
N2   N   0.888889122804283   0.277771884377299   0.875000000000000   1.0000000
N2   N   0.222457634700204   0.778819172655179   0.375000000000000   1.0000000
N2   N   0.055579672508648   0.277632471969060   0.375000000000000   1.0000000
N2   N   0.388356624981000   0.279324814343821   0.375000000000000   1.0000000
N2   N   0.555083665503370   0.777778856687042   0.375000000000000   1.0000000
N2   N   0.887422671300443   0.776490168097147   0.375000000000000   1.0000000
N2   N   0.724604069337430   0.276304769986749   0.375000000000000   1.0000000
N2   N   0.055554149482171   0.944444098052883   0.875000000000000   1.0000000
N2   N   0.388895002014928   0.944439926407473   0.875000000000000   1.0000000
N2   N   0.222223572915700   0.444436073901915   0.875000000000000   1.0000000
N2   N   0.555549020385639   0.444439152263092   0.875000000000000   1.0000000
N2   N   0.722221467012779   0.944439418336707   0.875000000000000   1.0000000
N2   N   0.888891627896676   0.444438376619720   0.875000000000000   1.0000000
N2   N   0.056459170290956   0.444722341971749   0.375000000000000   1.0000000
N2   N   0.222932475069850   0.946109206626403   0.375000000000000   1.0000000
N2   N   0.555553815861546   0.944366686811599   0.375000000000000   1.0000000
N2   N   0.385709964640806   0.446309919383410   0.375000000000000   1.0000000
N2   N   0.888495147872822   0.943601304828494   0.375000000000000   1.0000000
N2   N   0.733462060999607   0.447638573064905   0.375000000000000   1.0000000
N2   N   0.222223833904689   0.611101244871683   0.875000000000000   1.0000000
N2   N   0.055552796321993   0.111106383192327   0.875000000000000   1.0000000
N2   N   0.555552957918615   0.611102743885448   0.875000000000000   1.0000000
N2   N   0.388895109021603   0.111108915031149   0.875000000000000   1.0000000
N2   N   0.888886685995545   0.611102531153967   0.875000000000000   1.0000000
N2   N   0.055788999485656   0.611605729780399   0.375000000000000   1.0000000
N2   N   0.722219623496609   0.111102863391310   0.875000000000000   1.0000000
N2   N   0.223567472709816   0.113330064364477   0.375000000000000   1.0000000
N2   N   0.388182593624144   0.611076921192953   0.375000000000000   1.0000000
N2   N   0.717837960920178   0.607705757961947   0.375000000000000   1.0000000
N2   N   0.556267101692976   0.110824320667273   0.375000000000000   1.0000000
N2   N   0.388893369916996   0.611102768216044   0.875000000000000   1.0000000
N2   N   0.889036871165771   0.110367974421857   0.375000000000000   1.0000000
N2   N   0.222225435669735   0.777771468434820   0.875000000000000   1.0000000
N2   N   0.055553621628927   0.277770826205814   0.875000000000000   1.0000000
N2   N   0.388892171929240   0.277779437664803   0.875000000000000   1.0000000
N2   N   0.555556927220924   0.777772756878998   0.875000000000000   1.0000000
N2   N   0.888884908917823   0.777773521265359   0.875000000000000   1.0000000
N2   N   0.722221671311462   0.277768741174925   0.875000000000000   1.0000000
N2   N   0.055477274624728   0.778217014786798   0.375000000000000   1.0000000
N2   N   0.388819011497934   0.778426525245811   0.375000000000000   1.0000000
N2   N   0.220725516909570   0.277678748706288   0.375000000000000   1.0000000
N2   N   0.721368455993023   0.776741853714356   0.375000000000000   1.0000000
N2   N   0.554604322680414   0.269821156789977   0.375000000000000   1.0000000
N2   N   0.890035502892295   0.277296073889689   0.375000000000000   1.0000000
N2   N   0.055555033251207   0.444436296913830   0.875000000000000   1.0000000
N2   N   0.222227018027671   0.944443992611679   0.875000000000000   1.0000000
N2   N   0.555556814423929   0.944439508437144   0.875000000000000   1.0000000
N2   N   0.388892081827493   0.444439771806260   0.875000000000000   1.0000000
N2   N   0.888888542761535   0.944441348679785   0.875000000000000   1.0000000
N2   N   0.055613509211514   0.944761009935936   0.375000000000000   1.0000000
N2   N   0.722221349196100   0.444436931223118   0.875000000000000   1.0000000
N2   N   0.389312426325602   0.946025041943762   0.375000000000000   1.0000000
N2   N   0.222552617210620   0.444905964125889   0.375000000000000   1.0000000
N2   N   0.222270870498324   0.611737038731366   0.375000000000000   1.0000000
N2   N   0.722044558546438   0.943575865913100   0.375000000000000   1.0000000
N2   N   0.890823400003253   0.444415845438621   0.375000000000000   1.0000000
N2   N   0.055556419127727   0.611101238392438   0.875000000000000   1.0000000
N2   N   0.222223317906216   0.111111466559138   0.875000000000000   1.0000000
N2   N   0.722212195009804   0.611101339777752   0.875000000000000   1.0000000
N2   N   0.555555433782689   0.111100662183408   0.875000000000000   1.0000000
N2   N   0.888887434658517   0.111103911218629   0.875000000000000   1.0000000
B2   B   0.111117735151810   0.055827978929714   0.375000000000000   1.0000000
B2   B   0.607821672038881   0.555770933929467   0.375000000000000   1.0000000
B2   B   0.445368030890261   0.057282034015061   0.375000000000000   1.0000000
B2   B   0.944673818629742   0.555521685057079   0.375000000000000   1.0000000
B2   B   0.777999366288436   0.054612507225268   0.375000000000000   1.0000000
B2   B   0.111107436246924   0.722210343931942   0.875000000000000   1.0000000
B2   B   0.444451866976663   0.722250129961243   0.875000000000000   1.0000000
B2   B   0.277764750084979   0.222194642196466   0.875000000000000   1.0000000
B2   B   0.777794219402877   0.722228687864410   0.875000000000000   1.0000000
B2   B   0.611130639672152   0.222206731867046   0.875000000000000   1.0000000
B2   B   0.944412110980244   0.222211478820758   0.875000000000000   1.0000000
B2   B   0.277710865839519   0.723116668682419   0.375000000000000   1.0000000
B2   B   0.109101929127000   0.221087578958236   0.375000000000000   1.0000000
B2   B   0.448308902296662   0.226658980248334   0.375000000000000   1.0000000
B2   B   0.611097461793517   0.723566131517784   0.375000000000000   1.0000000
B2   B   0.944164833935341   0.722042237331745   0.375000000000000   1.0000000
B2   B   0.779398060275674   0.220809670608612   0.375000000000000   1.0000000
B2   B   0.111108967550678   0.888874652615764   0.875000000000000   1.0000000
B2   B   0.444456194517371   0.888898959652546   0.875000000000000   1.0000000
B2   B   0.277751965282921   0.388875864883919   0.875000000000000   1.0000000
B2   B   0.611151040189871   0.388871046751720   0.875000000000000   1.0000000
B2   B   0.777783224676985   0.888909251936383   0.875000000000000   1.0000000
B2   B   0.944425851332636   0.388877374355605   0.875000000000000   1.0000000
B2   B   0.110761949842350   0.388628686940701   0.375000000000000   1.0000000
B2   B   0.278191022960315   0.890080613040101   0.375000000000000   1.0000000
B2   B   0.611114605271647   0.889086650649586   0.375000000000000   1.0000000
B2   B   0.943930437767742   0.888159202773950   0.375000000000000   1.0000000
B2   B   0.779643644724310   0.386110421622309   0.375000000000000   1.0000000
B2   B   0.277759531835069   0.555563284004355   0.875000000000000   1.0000000
B2   B   0.111089080918635   0.055532251141267   0.875000000000000   1.0000000
B2   B   0.611138173098389   0.555559066860698   0.875000000000000   1.0000000
B2   B   0.444462840891454   0.055540268861877   0.875000000000000   1.0000000
B2   B   0.944444436537980   0.555540853170346   0.875000000000000   1.0000000
B2   B   0.111111094285908   0.555989265450684   0.375000000000000   1.0000000
B2   B   0.777770943988028   0.055559955996508   0.875000000000000   1.0000000
B2   B   0.278700787875085   0.057154779382927   0.375000000000000   1.0000000
B2   B   0.445055483667383   0.558314199836602   0.375000000000000   1.0000000
B2   B   0.776492683536725   0.555029405435480   0.375000000000000   1.0000000
B2   B   0.611798252289187   0.055156727990224   0.375000000000000   1.0000000
B2   B   0.444450933017695   0.555576039066987   0.875000000000000   1.0000000
B2   B   0.943963298854809   0.054610188093871   0.375000000000000   1.0000000
B2   B   0.277774287427095   0.722227628708845   0.875000000000000   1.0000000
B2   B   0.111069195236570   0.222198349455635   0.875000000000000   1.0000000
B2   B   0.444476811549042   0.222199591745782   0.875000000000000   1.0000000
B2   B   0.611129692913017   0.722253724115522   0.875000000000000   1.0000000
B2   B   0.944450268491736   0.722210848606961   0.875000000000000   1.0000000
B2   B   0.777773163984855   0.222214163960923   0.875000000000000   1.0000000
B2   B   0.111241580813826   0.722814137416091   0.375000000000000   1.0000000
B2   B   0.444190493395780   0.723125497818975   0.375000000000000   1.0000000
B2   B   0.275625416265007   0.223583593186368   0.375000000000000   1.0000000
B2   B   0.776184045073770   0.720693367215188   0.375000000000000   1.0000000
B2   B   0.615195544302073   0.221931881352809   0.375000000000000   1.0000000
B2   B   0.944500840094420   0.221380036699526   0.375000000000000   1.0000000
B2   B   0.111072337566729   0.388875942697531   0.875000000000000   1.0000000
B2   B   0.277784175833995   0.888878473922998   0.875000000000000   1.0000000
B2   B   0.611122299568426   0.888913667733413   0.875000000000000   1.0000000
B2   B   0.444465249183115   0.388881109194459   0.875000000000000   1.0000000
B2   B   0.944440770738939   0.888883633877456   0.875000000000000   1.0000000
B2   B   0.111395576360773   0.889482241295694   0.375000000000000   1.0000000
B2   B   0.777787183067848   0.388874269475871   0.875000000000000   1.0000000
B2   B   0.444547328302899   0.889852276404951   0.375000000000000   1.0000000
B2   B   0.273893708320480   0.386672133883712   0.375000000000000   1.0000000
B2   B   0.277084211337657   0.556225502203048   0.375000000000000   1.0000000
B2   B   0.777592854087804   0.888336007828272   0.375000000000000   1.0000000
B2   B   0.945541983309867   0.388431577056087   0.375000000000000   1.0000000
B2   B   0.111092398248639   0.555547984670627   0.875000000000000   1.0000000
B2   B   0.277783924413900   0.055531784818661   0.875000000000000   1.0000000
B2   B   0.777795945415235   0.555535267459850   0.875000000000000   1.0000000
B2   B   0.611120869416297   0.055556384192198   0.875000000000000   1.0000000
B2   B   0.944419304961734   0.055541857295706   0.875000000000000   1.0000000
B2   B   0.055479157431586   0.111004357825087   0.124821196695996   1.0000000
B2   B   0.555627313075094   0.611180993046164   0.125010113025998   1.0000000
B2   B   0.388900610137183   0.111035055271739   0.124960161761014   1.0000000
B2   B   0.888930618963698   0.611093791724921   0.124983760681138   1.0000000
B2   B   0.722232721962280   0.111103390958533   0.124896085934440   1.0000000
B2   B   0.055558907875785   0.777741987718721   0.625072930949342   1.0000000
B2   B   0.388836455868779   0.777827914801702   0.625132684696117   1.0000000
B2   B   0.222092889920887   0.277666826183884   0.625099584009103   1.0000000
B2   B   0.722304506195680   0.777815991163113   0.625123682124502   1.0000000
B2   B   0.555702361048367   0.277811392550770   0.624748265825511   1.0000000
B2   B   0.888869795828192   0.277763841776263   0.625124881438316   1.0000000
B2   B   0.222176961005383   0.777773158996405   0.124912193009284   1.0000000
B2   B   0.055462563882229   0.277736319932207   0.124812861453431   1.0000000
B2   B   0.388898485168362   0.277637643435735   0.125237542551838   1.0000000
B2   B   0.555554691227972   0.777845596422210   0.124827672842202   1.0000000
B2   B   0.888964009148357   0.777768997542437   0.124910899553030   1.0000000
B2   B   0.722265386647654   0.277785572859994   0.124906923444783   1.0000000
B2   B   0.055535423405925   0.944353737106389   0.625125605350854   1.0000000
B2   B   0.388869183214367   0.944431008466921   0.625096199043519   1.0000000
B2   B   0.222103409921366   0.444468060741996   0.625138296818946   1.0000000
B2   B   0.555736761192010   0.444333270010047   0.624684119969121   1.0000000
B2   B   0.722232792243744   0.944451466382958   0.625123608395807   1.0000000
B2   B   0.888872149342580   0.444429467036654   0.625061482292383   1.0000000
B2   B   0.055483423653416   0.444457466003701   0.124870100183850   1.0000000
B2   B   0.222189394792021   0.944359503346725   0.124892818814646   1.0000000
B2   B   0.555546870915997   0.944466728409351   0.124892820336884   1.0000000
B2   B   0.388852312059730   0.444435234389711   0.125169364249605   1.0000000
B2   B   0.888904127744478   0.944407203498237   0.124870448721660   1.0000000
B2   B   0.722263940397966   0.444385447864891   0.125259559163231   1.0000000
B2   B   0.222135701087381   0.611156267157283   0.625139466536630   1.0000000
B2   B   0.055479157431586   0.111004357825087   0.625178803304004   1.0000000
B2   B   0.555627313075094   0.611180993046164   0.624989886974002   1.0000000
B2   B   0.388900610137183   0.111035055271739   0.625039838238986   1.0000000
B2   B   0.888930618963698   0.611093791724921   0.625016239318862   1.0000000
B2   B   0.055516136818382   0.611111162135099   0.124926983906923   1.0000000
B2   B   0.722232721962280   0.111103390958533   0.625103914065560   1.0000000
B2   B   0.222144235833871   0.110944780705090   0.124907766581645   1.0000000
B2   B   0.388820214459315   0.611196415246572   0.124872220180900   1.0000000
B2   B   0.722386067457870   0.611119798910416   0.125091146305383   1.0000000
B2   B   0.555595475252229   0.111120863860152   0.124924651522395   1.0000000
B2   B   0.388820214459315   0.611196415246572   0.625127779819100   1.0000000
B2   B   0.888863062642931   0.111071006455181   0.124865924189334   1.0000000
B2   B   0.222176961005383   0.777773158996405   0.625087806990717   1.0000000
B2   B   0.055462563882229   0.277736319932207   0.625187138546568   1.0000000
B2   B   0.388898485168362   0.277637643435735   0.624762457448163   1.0000000
B2   B   0.555554691227972   0.777845596422210   0.625172327157798   1.0000000
B2   B   0.888964009148357   0.777768997542437   0.625089100446971   1.0000000
B2   B   0.722265386647654   0.277785572859994   0.625093076555217   1.0000000
B2   B   0.055558907875785   0.777741987718721   0.124927069050658   1.0000000
B2   B   0.388836455868779   0.777827914801702   0.124867315303882   1.0000000
B2   B   0.222092889920887   0.277666826183884   0.124900415990896   1.0000000
B2   B   0.722304506195680   0.777815991163113   0.124876317875499   1.0000000
B2   B   0.555702361048367   0.277811392550770   0.125251734174490   1.0000000
B2   B   0.888869795828192   0.277763841776263   0.124875118561684   1.0000000
B2   B   0.055483423653416   0.444457466003701   0.625129899816150   1.0000000
B2   B   0.222189394792021   0.944359503346725   0.625107181185355   1.0000000
B2   B   0.555546870915997   0.944466728409351   0.625107179663116   1.0000000
B2   B   0.388852312059730   0.444435234389711   0.624830635750395   1.0000000
B2   B   0.888904127744478   0.944407203498237   0.625129551278339   1.0000000
B2   B   0.055535423405925   0.944353737106389   0.124874394649146   1.0000000
B2   B   0.722263940397966   0.444385447864891   0.624740440836768   1.0000000
B2   B   0.388869183214367   0.944431008466921   0.124903800956481   1.0000000
B2   B   0.222103409921366   0.444468060741996   0.124861703181054   1.0000000
B2   B   0.222135701087381   0.611156267157283   0.124860533463371   1.0000000
B2   B   0.555736761192010   0.444333270010047   0.125315880030880   1.0000000
B2   B   0.722232792243744   0.944451466382958   0.124876391604193   1.0000000
B2   B   0.888872149342580   0.444429467036654   0.124938517707618   1.0000000
B2   B   0.055516136818382   0.611111162135099   0.625073016093076   1.0000000
B2   B   0.222144235833871   0.110944780705090   0.625092233418356   1.0000000
B2   B   0.722386067457870   0.611119798910416   0.624908853694618   1.0000000
B2   B   0.555595475252229   0.111120863860152   0.625075348477604   1.0000000
B2   B   0.888863062642931   0.111071006455181   0.625134075810667   1.0000000


