data_1
_audit_creation_method   'vasp2cif'
_cell_length_a    14.93631414619966
_cell_length_b    14.936314146199727
_cell_length_c    13.341276283792837
_cell_angle_alpha    90.0
_cell_angle_beta    90.0
_cell_angle_gamma    119.99999999999984

_symmetry_space_group_name_H-M    'P 1'
loop_
_atom_site_label
_atom_site_type_symbol
_atom_site_fract_x
_atom_site_fract_y
_atom_site_fract_z
_atom_site_occupancy
C2   C   0.543194833184339   0.438264083258834   0.375000000000000   1.0000000
N2   N   0.111121104364232   0.055557827117157   0.125006540644339   1.0000000
N2   N   0.611078627496714   0.555544384783773   0.125222156604682   1.0000000
N2   N   0.444460220806693   0.055553998881651   0.125021179551387   1.0000000
N2   N   0.944430990148654   0.555552755890400   0.125047126835741   1.0000000
N2   N   0.777791252919210   0.055562293126273   0.125016053189394   1.0000000
N2   N   0.111109111188131   0.722221222260731   0.624987388604230   1.0000000
N2   N   0.444460220806693   0.722239555258378   0.624978820448613   1.0000000
N2   N   0.277786713693022   0.222227617221965   0.624882655355253   1.0000000
N2   N   0.777761680524099   0.722210136984438   0.624899248150145   1.0000000
N2   N   0.611114475071737   0.222206087196380   0.624947141676173   1.0000000
N2   N   0.944453459960758   0.222230396454125   0.624987661698450   1.0000000
N2   N   0.277787354485911   0.722229053198739   0.125004238488565   1.0000000
N2   N   0.111119900209669   0.222226616771499   0.125009142929580   1.0000000
N2   N   0.444465966361909   0.222215302467269   0.125074046859689   1.0000000
N2   N   0.611114475071737   0.722241721208686   0.125052858323827   1.0000000
N2   N   0.944430990148654   0.722211567591589   0.125047126835741   1.0000000
N2   N   0.777785314340201   0.222225721303013   0.125039828539161   1.0000000
N2   N   0.111112066869732   0.888885446416002   0.624998422246721   1.0000000
N2   N   0.444459050470192   0.888896191901761   0.624976053739546   1.0000000
N2   N   0.277786713693022   0.388892429804386   0.624882655355253   1.0000000
N2   N   0.611078627496714   0.388867576046269   0.624777843395318   1.0000000
N2   N   0.777785314340201   0.888892926370517   0.624960171460840   1.0000000
N2   N   0.944446280207293   0.388896071366869   0.624976069599259   1.0000000
N2   N   0.111121104364232   0.388896610580403   0.125006540644339   1.0000000
N2   N   0.277787354485911   0.888891634620502   0.125004238488565   1.0000000
N2   N   0.611126112665856   0.888906041845812   0.125010937060602   1.0000000
N2   N   0.444447240960336   0.388890287146832   0.124551901139247   1.0000000
N2   N   0.944446280207293   0.888883542173754   0.125023930400742   1.0000000
N2   N   0.777761680524099   0.388884876872991   0.125100751849855   1.0000000
N2   N   0.277789444379171   0.555565315325875   0.625000951927870   1.0000000
N2   N   0.111121104364232   0.055557827117157   0.624993459355661   1.0000000
N2   N   0.611078627496714   0.555544384783773   0.624777843395318   1.0000000
N2   N   0.444460220806693   0.055553998881651   0.624978820448613   1.0000000
N2   N   0.944430990148654   0.555552755890400   0.624952873164259   1.0000000
N2   N   0.111112066869732   0.555559953787059   0.125001577753278   1.0000000
N2   N   0.777791252919210   0.055562293126273   0.624983946810605   1.0000000
N2   N   0.277789444379171   0.055557462386631   0.124999048072129   1.0000000
N2   N   0.444465966361909   0.555583997227977   0.125074046859689   1.0000000
N2   N   0.777740044435022   0.555536688884180   0.125186151350310   1.0000000
N2   N   0.611126112665856   0.055553404153370   0.125010937060602   1.0000000
N2   N   0.444465966361909   0.555583997227977   0.624925953140312   1.0000000
N2   N   0.944453459960758   0.055556396839969   0.125012338301549   1.0000000
N2   N   0.277787354485911   0.722229053198739   0.624995761511436   1.0000000
N2   N   0.111119900209669   0.222226616771499   0.624990857070420   1.0000000
N2   N   0.444465966361909   0.222215302467269   0.624925953140312   1.0000000
N2   N   0.611114475071737   0.722241721208686   0.624947141676173   1.0000000
N2   N   0.944430990148654   0.722211567591589   0.624952873164259   1.0000000
N2   N   0.777785314340201   0.222225721303013   0.624960171460840   1.0000000
N2   N   0.111109111188131   0.722221222260731   0.125012611395770   1.0000000
N2   N   0.444460220806693   0.722239555258378   0.125021179551387   1.0000000
N2   N   0.277786713693022   0.222227617221965   0.125117344644746   1.0000000
N2   N   0.777761680524099   0.722210136984438   0.125100751849855   1.0000000
N2   N   0.611114475071737   0.222206087196380   0.125052858323827   1.0000000
N2   N   0.944453459960758   0.222230396454125   0.125012338301549   1.0000000
N2   N   0.111121104364232   0.388896610580403   0.624993459355661   1.0000000
N2   N   0.277787354485911   0.888891634620502   0.624995761511436   1.0000000
N2   N   0.611126112665856   0.888906041845812   0.624989062939398   1.0000000
N2   N   0.444447240960336   0.388890287146832   0.625448098860753   1.0000000
N2   N   0.944446280207293   0.888883542173754   0.624976069599259   1.0000000
N2   N   0.111112066869732   0.888885446416002   0.125001577753278   1.0000000
N2   N   0.777761680524099   0.388884876872991   0.624899248150145   1.0000000
N2   N   0.444459050470192   0.888896191901761   0.125023946260453   1.0000000
N2   N   0.277786713693022   0.388892429804386   0.125117344644746   1.0000000
N2   N   0.277789444379171   0.555565315325875   0.124999048072129   1.0000000
N2   N   0.611078627496714   0.388867576046269   0.125222156604682   1.0000000
N2   N   0.777785314340201   0.888892926370517   0.125039828539161   1.0000000
N2   N   0.944446280207293   0.388896071366869   0.125023930400742   1.0000000
N2   N   0.111112066869732   0.555559953787059   0.624998422246721   1.0000000
N2   N   0.277789444379171   0.055557462386631   0.625000951927870   1.0000000
N2   N   0.777740044435022   0.555536688884180   0.624813848649690   1.0000000
N2   N   0.611126112665856   0.055553404153370   0.624989062939398   1.0000000
N2   N   0.944453459960758   0.055556396839969   0.624987661698450   1.0000000
N2   N   0.057549167449271   0.112250381122914   0.375000000000000   1.0000000
N2   N   0.556201954798413   0.616558870259577   0.375000000000000   1.0000000
N2   N   0.388824379692603   0.109152817047136   0.375000000000000   1.0000000
N2   N   0.885602337622874   0.609467835478109   0.375000000000000   1.0000000
N2   N   0.723342920059085   0.111177646323241   0.375000000000000   1.0000000
N2   N   0.055551241704880   0.777775919419131   0.875000000000000   1.0000000
N2   N   0.388886422535858   0.777777180071111   0.875000000000000   1.0000000
N2   N   0.222218963633871   0.277776148483603   0.875000000000000   1.0000000
N2   N   0.722221917037378   0.777776402228539   0.875000000000000   1.0000000
N2   N   0.555554912268279   0.277778908920691   0.875000000000000   1.0000000
N2   N   0.888888649225285   0.277779230383488   0.875000000000000   1.0000000
N2   N   0.221002317883186   0.777167825608260   0.375000000000000   1.0000000
N2   N   0.057549167449271   0.278632119659692   0.375000000000000   1.0000000
N2   N   0.391751416020298   0.274501589247312   0.375000000000000   1.0000000
N2   N   0.555875622503817   0.780102295176846   0.375000000000000   1.0000000
N2   N   0.887608372378688   0.777201100249076   0.375000000000000   1.0000000
N2   N   0.722908793487726   0.276836792881483   0.375000000000000   1.0000000
N2   N   0.055551617489894   0.944441414897360   0.875000000000000   1.0000000
N2   N   0.388886422535858   0.944442575798083   0.875000000000000   1.0000000
N2   N   0.222218287030107   0.444443896384433   0.875000000000000   1.0000000
N2   N   0.555557689532120   0.444445511432724   0.875000000000000   1.0000000
N2   N   0.722219918436489   0.944442856311037   0.875000000000000   1.0000000
N2   N   0.888889682666425   0.444444746158293   0.875000000000000   1.0000000
N2   N   0.056026678722137   0.444532892881545   0.375000000000000   1.0000000
N2   N   0.221563958919648   0.943733102185321   0.375000000000000   1.0000000
N2   N   0.555776159655733   0.944554746494531   0.375000000000000   1.0000000
N2   N   0.391751416020298   0.450583160106321   0.375000000000000   1.0000000
N2   N   0.890127344208318   0.945452625547794   0.375000000000000   1.0000000
N2   N   0.717933046543339   0.441936574605641   0.375000000000000   1.0000000
N2   N   0.222216964512553   0.611109643197635   0.875000000000000   1.0000000
N2   N   0.055550965879032   0.111107392725382   0.875000000000000   1.0000000
N2   N   0.555554912268279   0.611109336680924   0.875000000000000   1.0000000
N2   N   0.388887650967167   0.111110024787752   0.875000000000000   1.0000000
N2   N   0.888888233302936   0.611110783318139   0.875000000000000   1.0000000
N2   N   0.053901567434700   0.610403781863483   0.375000000000000   1.0000000
N2   N   0.722219918436489   0.111110395458787   0.875000000000000   1.0000000
N2   N   0.224507685090545   0.112465857371042   0.375000000000000   1.0000000
N2   N   0.388824379692603   0.613004895978809   0.375000000000000   1.0000000
N2   N   0.717933046543339   0.609329805271035   0.375000000000000   1.0000000
N2   N   0.555875622503817   0.109106660660307   0.375000000000000   1.0000000
N2   N   0.388887650967167   0.611110959512756   0.875000000000000   1.0000000
N2   N   0.890610544133769   0.111971938733555   0.375000000000000   1.0000000
N2   N   0.222217206144791   0.777775269739064   0.875000000000000   1.0000000
N2   N   0.055550965879032   0.277776906486986   0.875000000000000   1.0000000
N2   N   0.388887923939952   0.277776185270066   0.875000000000000   1.0000000
N2   N   0.555553063171657   0.777776802387605   0.875000000000000   1.0000000
N2   N   0.888889682666425   0.777778269841467   0.875000000000000   1.0000000
N2   N   0.722221917037378   0.277778848142176   0.875000000000000   1.0000000
N2   N   0.053901567434700   0.776831118904553   0.375000000000000   1.0000000
N2   N   0.388309247650723   0.778121584581564   0.375000000000000   1.0000000
N2   N   0.224915044634605   0.279124188983971   0.375000000000000   1.0000000
N2   N   0.722908793487726   0.779405333939580   0.375000000000000   1.0000000
N2   N   0.556201954798412   0.272976417872172   0.375000000000000   1.0000000
N2   N   0.890127344208318   0.278008051993859   0.375000000000000   1.0000000
N2   N   0.055551617489894   0.444443535925863   0.875000000000000   1.0000000
N2   N   0.222216964512553   0.944440654648253   0.875000000000000   1.0000000
N2   N   0.555551345020336   0.944442339176832   0.875000000000000   1.0000000
N2   N   0.388887923939952   0.444445072003221   0.875000000000000   1.0000000
N2   N   0.888888649225285   0.944442752175133   0.875000000000000   1.0000000
N2   N   0.056026678722137   0.944827119173921   0.375000000000000   1.0000000
N2   N   0.722222011045937   0.444445116177908   0.875000000000000   1.0000000
N2   N   0.388309247650723   0.943520996402494   0.375000000000000   1.0000000
N2   N   0.224507685090545   0.445375161052839   0.375000000000000   1.0000000
N2   N   0.221563958919648   0.611164190067664   0.375000000000000   1.0000000
N2   N   0.723342920059085   0.945498607069178   0.375000000000000   1.0000000
N2   N   0.887608372378688   0.443740605462947   0.375000000000000   1.0000000
N2   N   0.055551241704880   0.611108655619084   0.875000000000000   1.0000000
N2   N   0.222218287030107   0.111107723979009   0.875000000000000   1.0000000
N2   N   0.722222011045937   0.611110228201365   0.875000000000000   1.0000000
N2   N   0.555553063171657   0.111109594117388   0.875000000000000   1.0000000
N2   N   0.888887369447083   0.111110351390213   0.875000000000000   1.0000000
B2   B   0.113009143696259   0.056658888590893   0.375000000000000   1.0000000
B2   B   0.605939809204115   0.558250639494843   0.375000000000000   1.0000000
B2   B   0.444573847036288   0.054192711927553   0.375000000000000   1.0000000
B2   B   0.942537423929188   0.554769756346516   0.375000000000000   1.0000000
B2   B   0.779439792026173   0.056386562679754   0.375000000000000   1.0000000
B2   B   0.111112421843956   0.722222877588643   0.875000000000000   1.0000000
B2   B   0.444432445158553   0.722207654338833   0.875000000000000   1.0000000
B2   B   0.277783856673452   0.222231783113325   0.875000000000000   1.0000000
B2   B   0.777777422573597   0.722223185152692   0.875000000000000   1.0000000
B2   B   0.611098053956545   0.222221020996333   0.875000000000000   1.0000000
B2   B   0.944458256525974   0.222227448112750   0.875000000000000   1.0000000
B2   B   0.277021426872956   0.722132496461026   0.375000000000000   1.0000000
B2   B   0.113726148150240   0.223529740741784   0.375000000000000   1.0000000
B2   B   0.445850910718624   0.220256712216903   0.375000000000000   1.0000000
B2   B   0.612284507177190   0.726392545755123   0.375000000000000   1.0000000
B2   B   0.942537423929188   0.721101000916007   0.375000000000000   1.0000000
B2   B   0.779187498731586   0.222083057756086   0.375000000000000   1.0000000
B2   B   0.111115200360499   0.888897635758149   0.875000000000000   1.0000000
B2   B   0.444435146536610   0.888884239934969   0.875000000000000   1.0000000
B2   B   0.277783856673452   0.388885406893456   0.875000000000000   1.0000000
B2   B   0.611091729397617   0.388881775446564   0.875000000000000   1.0000000
B2   B   0.777780461757107   0.888891283288148   0.875000000000000   1.0000000
B2   B   0.944454725050753   0.388889504960971   0.875000000000000   1.0000000
B2   B   0.113009143696259   0.389683588438694   0.375000000000000   1.0000000
B2   B   0.277021426872956   0.888222263745257   0.375000000000000   1.0000000
B2   B   0.612056747345914   0.890423095099991   0.375000000000000   1.0000000
B2   B   0.944668542519779   0.889033183257040   0.375000000000000   1.0000000
B2   B   0.776210564093489   0.387705690574149   0.375000000000000   1.0000000
B2   B   0.277774356579047   0.555542171352065   0.875000000000000   1.0000000
B2   B   0.111123327252102   0.055567755651272   0.875000000000000   1.0000000
B2   B   0.611091729397617   0.555543287284382   0.875000000000000   1.0000000
B2   B   0.444432445158553   0.055558124153054   0.875000000000000   1.0000000
B2   B   0.944449887740738   0.555555358727484   0.875000000000000   1.0000000
B2   B   0.110445497940765   0.555500021970859   0.375000000000000   1.0000000
B2   B   0.777781466545610   0.055557399939473   0.875000000000000   1.0000000
B2   B   0.277963484451166   0.055039081755558   0.375000000000000   1.0000000
B2   B   0.445850910718624   0.558927531835057   0.375000000000000   1.0000000
B2   B   0.773893010931711   0.553613172132524   0.375000000000000   1.0000000
B2   B   0.612056747345914   0.054966985579252   0.375000000000000   1.0000000
B2   B   0.444423481103000   0.555529862904066   0.875000000000000   1.0000000
B2   B   0.946398481028683   0.056690054139625   0.375000000000000   1.0000000
B2   B   0.277772750288286   0.722214645461464   0.875000000000000   1.0000000
B2   B   0.111126226273098   0.222229779803213   0.875000000000000   1.0000000
B2   B   0.444423481103000   0.222226951532269   0.875000000000000   1.0000000
B2   B   0.611098053956545   0.722210366293540   0.875000000000000   1.0000000
B2   B   0.944449887740738   0.722227862346590   0.875000000000000   1.0000000
B2   B   0.777780461757107   0.222222511802289   0.875000000000000   1.0000000
B2   B   0.109736328515949   0.721534830924639   0.375000000000000   1.0000000
B2   B   0.444573847036288   0.723714468442071   0.375000000000000   1.0000000
B2   B   0.281916282673368   0.225548213988674   0.375000000000000   1.0000000
B2   B   0.776210564093489   0.721838206852668   0.375000000000000   1.0000000
B2   B   0.612284507177190   0.219225294755396   0.375000000000000   1.0000000
B2   B   0.946398481028683   0.223041760222394   0.375000000000000   1.0000000
B2   B   0.111123327252102   0.388888904934158   0.875000000000000   1.0000000
B2   B   0.277772750288286   0.888891438160151   0.875000000000000   1.0000000
B2   B   0.611103174519527   0.888883212087445   0.875000000000000   1.0000000
B2   B   0.444417265136907   0.388875299235118   0.875000000000000   1.0000000
B2   B   0.944454725050753   0.888898553423111   0.875000000000000   1.0000000
B2   B   0.110445497940765   0.888278809303235   0.375000000000000   1.0000000
B2   B   0.777777422573597   0.388887570754234   0.875000000000000   1.0000000
B2   B   0.444398319115315   0.888865826224322   0.375000000000000   1.0000000
B2   B   0.281916282673368   0.389701402018023   0.375000000000000   1.0000000
B2   B   0.277963484451166   0.556257736028944   0.375000000000000   1.0000000
B2   B   0.605939809204115   0.381022503042600   0.375000000000000   1.0000000
B2   B   0.779187498731586   0.890437774308827   0.375000000000000   1.0000000
B2   B   0.944668542519779   0.388968692596071   0.375000000000000   1.0000000
B2   B   0.111115200360499   0.555550897935678   0.875000000000000   1.0000000
B2   B   0.277774356579047   0.055565518560319   0.875000000000000   1.0000000
B2   B   0.777774079638881   0.555553706486108   0.875000000000000   1.0000000
B2   B   0.611103174519527   0.055553295765411   0.875000000000000   1.0000000
B2   B   0.944458256525974   0.055564141746560   0.875000000000000   1.0000000
B2   B   0.055601559881736   0.111144076754466   0.125003313784497   1.0000000
B2   B   0.555469167832722   0.611088135952868   0.125034801031944   1.0000000
B2   B   0.388896625022093   0.111147638960679   0.125047799676675   1.0000000
B2   B   0.888887264897872   0.611110299115608   0.125020495105408   1.0000000
B2   B   0.722228667254971   0.111105120388069   0.124993739326982   1.0000000
B2   B   0.055576657955586   0.777794878445754   0.625000963978951   1.0000000
B2   B   0.388895932425905   0.777777037260379   0.625001216124126   1.0000000
B2   B   0.222301199760835   0.277817266547085   0.624851555475910   1.0000000
B2   B   0.722207604329434   0.777789025524139   0.625002335261247   1.0000000
B2   B   0.555469167832722   0.277714365213191   0.624965198968055   1.0000000
B2   B   0.888912133261725   0.277781415968982   0.625002662459986   1.0000000
B2   B   0.222241985208476   0.777787659270906   0.124999381043724   1.0000000
B2   B   0.055601559881736   0.277790816460605   0.125003313784497   1.0000000
B2   B   0.388914255356826   0.277858918474648   0.125424912919355   1.0000000
B2   B   0.555543177318603   0.777787467897359   0.124991699799630   1.0000000
B2   B   0.888893828829110   0.777789339087106   0.125008244353226   1.0000000
B2   B   0.722207604329434   0.277751912138630   0.124997664738754   1.0000000
B2   B   0.055590615461239   0.944480100536027   0.625001603828309   1.0000000
B2   B   0.388895932425905   0.944452228498861   0.625001216124126   1.0000000
B2   B   0.222281678678384   0.444424496989431   0.624906524228686   1.0000000
B2   B   0.555348189826401   0.444340761579865   0.625033508904699   1.0000000
B2   B   0.722228667254971   0.944456880200238   0.625006260673017   1.0000000
B2   B   0.888893828829110   0.444437823075339   0.624991755646775   1.0000000
B2   B   0.055590615461239   0.444443848258540   0.124998396171691   1.0000000
B2   B   0.222249364565132   0.944481858562347   0.124996814948160   1.0000000
B2   B   0.555557095122459   0.944445214227895   0.124995296074131   1.0000000
B2   B   0.388914255356826   0.444388670215513   0.125424912919355   1.0000000
B2   B   0.888912133261725   0.944464050626079   0.124997337540015   1.0000000
B2   B   0.722164582220729   0.444405289331789   0.125059338042177   1.0000000
B2   B   0.222249364565132   0.611100839336120   0.625003185051840   1.0000000
B2   B   0.055601559881736   0.111144076754466   0.624996686215503   1.0000000
B2   B   0.555469167832722   0.611088135952868   0.624965198968055   1.0000000
B2   B   0.388896625022093   0.111147638960679   0.624952200323325   1.0000000
B2   B   0.888887264897872   0.611110299115608   0.624979504894592   1.0000000
B2   B   0.055576657955586   0.611115112843167   0.124999036021049   1.0000000
B2   B   0.722228667254971   0.111105120388069   0.625006260673017   1.0000000
B2   B   0.222281678678384   0.111190515022289   0.125093475771314   1.0000000
B2   B   0.388896625022093   0.611082319394757   0.125047799676675   1.0000000
B2   B   0.722164582220729   0.611092626222276   0.125059338042177   1.0000000
B2   B   0.555543177318603   0.111089042754578   0.124991699799630   1.0000000
B2   B   0.388896625022093   0.611082319394757   0.624952200323325   1.0000000
B2   B   0.888916315557405   0.111124824445374   0.124997165594220   1.0000000
B2   B   0.222241985208476   0.777787659270906   0.625000618956276   1.0000000
B2   B   0.055601559881736   0.277790816460605   0.624996686215503   1.0000000
B2   B   0.388914255356826   0.277858918474648   0.624575087080644   1.0000000
B2   B   0.555543177318603   0.777787467897359   0.625008300200370   1.0000000
B2   B   0.888893828829110   0.777789339087106   0.624991755646775   1.0000000
B2   B   0.722207604329434   0.277751912138630   0.625002335261247   1.0000000
B2   B   0.055576657955586   0.777794878445754   0.124999036021049   1.0000000
B2   B   0.388895932425905   0.777777037260379   0.124998783875873   1.0000000
B2   B   0.222301199760835   0.277817266547085   0.125148444524091   1.0000000
B2   B   0.722207604329434   0.777789025524139   0.124997664738754   1.0000000
B2   B   0.555469167832722   0.277714365213191   0.125034801031944   1.0000000
B2   B   0.888912133261725   0.277781415968982   0.124997337540015   1.0000000
B2   B   0.055590615461239   0.444443848258540   0.625001603828309   1.0000000
B2   B   0.222249364565132   0.944481858562347   0.625003185051840   1.0000000
B2   B   0.555557095122459   0.944445214227895   0.625004703925869   1.0000000
B2   B   0.388914255356826   0.444388670215513   0.624575087080644   1.0000000
B2   B   0.888912133261725   0.944464050626079   0.625002662459986   1.0000000
B2   B   0.055590615461239   0.944480100536027   0.124998396171691   1.0000000
B2   B   0.722164582220729   0.444405289331789   0.624940661957823   1.0000000
B2   B   0.388895932425905   0.944452228498861   0.124998783875873   1.0000000
B2   B   0.222281678678384   0.444424496989431   0.125093475771314   1.0000000
B2   B   0.222249364565132   0.611100839336120   0.124996814948160   1.0000000
B2   B   0.555348189826401   0.444340761579865   0.124966491095301   1.0000000
B2   B   0.722228667254971   0.944456880200238   0.124993739326982   1.0000000
B2   B   0.888893828829110   0.444437823075339   0.125008244353226   1.0000000
B2   B   0.055576657955586   0.611115112843167   0.625000963978951   1.0000000
B2   B   0.222281678678384   0.111190515022289   0.624906524228686   1.0000000
B2   B   0.722164582220729   0.611092626222276   0.624940661957823   1.0000000
B2   B   0.555543177318603   0.111089042754578   0.625008300200370   1.0000000
B2   B   0.888916315557405   0.111124824445374   0.625002834405779   1.0000000


