data_1
_audit_creation_method   'vasp2cif'
_cell_length_a    17.52789999999977
_cell_length_b    17.52789999999977
_cell_length_c    15.0
_cell_angle_alpha    90.0
_cell_angle_beta    90.0
_cell_angle_gamma    119.99999999999916

_symmetry_space_group_name_H-M    'P 1'
loop_
_atom_site_label
_atom_site_type_symbol
_atom_site_fract_x
_atom_site_fract_y
_atom_site_fract_z
_atom_site_occupancy
B2   B   0.904772789621071   0.952412201224938   0.111011397395819   1.0000000
B2   B   0.904732345706880   0.095254471251785   0.111045108684145   1.0000000
B2   B   0.904750927460356   0.238135151810351   0.111055205205664   1.0000000
B2   B   0.904595286043801   0.380946286978344   0.111006865669748   1.0000000
B2   B   0.904276712449882   0.523800669850634   0.111007285661271   1.0000000
B2   B   0.905649691439500   0.666951155845005   0.111081293751994   1.0000000
B2   B   0.904407809713549   0.809031729412201   0.111042094126435   1.0000000
B2   B   0.047378897769741   0.952138072412374   0.111004671852954   1.0000000
B2   B   0.047464247885795   0.095030657803135   0.111006129584896   1.0000000
B2   B   0.047759906540934   0.238181227836193   0.111004555282466   1.0000000
B2   B   0.047673629507857   0.380998062124684   0.111019866400560   1.0000000
B2   B   0.047168298270427   0.523792119295697   0.111015692261148   1.0000000
B2   B   0.047564819709294   0.666743702075615   0.111024247185385   1.0000000
B2   B   0.047727502668165   0.809645170842585   0.110997618930465   1.0000000
B2   B   0.190376653885905   0.952291377567380   0.110999635470837   1.0000000
B2   B   0.190397314710712   0.094978982909650   0.111057139094955   1.0000000
B2   B   0.190179352629006   0.237493226356115   0.111022077083791   1.0000000
B2   B   0.191119898859237   0.381232689705525   0.111007696434578   1.0000000
B2   B   0.190049900706013   0.524022532781882   0.111056437012954   1.0000000
B2   B   0.189801164952834   0.666907598472420   0.111060421940852   1.0000000
B2   B   0.190335612554691   0.809689812784638   0.110998061005057   1.0000000
B2   B   0.333290545164994   0.952457472033872   0.111022275511280   1.0000000
B2   B   0.333251322402134   0.094668136136371   0.111094660297508   1.0000000
B2   B   0.333736137810481   0.237184468523359   0.111082349026912   1.0000000
B2   B   0.333094824181223   0.377956672497959   0.110994496257680   1.0000000
B2   B   0.333454061736422   0.526392659529551   0.110999871476431   1.0000000
B2   B   0.332009782685255   0.668016562276250   0.111076942333427   1.0000000
B2   B   0.333122800448478   0.810202353711887   0.111058391474185   1.0000000
B2   B   0.476247425818586   0.952631722137138   0.111004664143756   1.0000000
B2   B   0.476256837795627   0.095152126142579   0.111008930613151   1.0000000
B2   B   0.476005833119013   0.237452407619461   0.111059371674137   1.0000000
B2   B   0.477550698780098   0.381322896117061   0.111004976648065   1.0000000
B2   B   0.473641389004374   0.667186472460498   0.110975443183881   1.0000000
B2   B   0.476052278382546   0.810042034889667   0.111056788086109   1.0000000
B2   B   0.619119564396601   0.952284679530085   0.111026612950341   1.0000000
B2   B   0.619121099598029   0.095383178469722   0.111003415667424   1.0000000
B2   B   0.618997993982922   0.238420615000745   0.111010757793324   1.0000000
B2   B   0.617972343108892   0.380821754299685   0.111011267052012   1.0000000
B2   B   0.621173904015203   0.666935871062261   0.110983900720887   1.0000000
B2   B   0.619120930212819   0.808886947448265   0.111005681630525   1.0000000
B2   B   0.761853327240524   0.952305360823388   0.111007580428979   1.0000000
B2   B   0.761901225210329   0.095260082376051   0.111057063564967   1.0000000
B2   B   0.761848284915505   0.238185433344547   0.111059714570117   1.0000000
B2   B   0.761669298961851   0.381018670773685   0.111004556768356   1.0000000
B2   B   0.761834590145339   0.524570383065922   0.111054127977755   1.0000000
B2   B   0.762858275088658   0.665693541575713   0.111082214504344   1.0000000
B2   B   0.762123988313285   0.809953759246173   0.111005960395474   1.0000000
C2   C   0.385505082003671   0.477266067359500   0.110891124014398   1.0000000
C2   C   0.479118403460956   0.525330222726040   0.111053001141600   1.0000000
C2   C   0.523458811639585   0.615916367960129   0.110842382382620   1.0000000
C2   C   0.619730562243042   0.524630780930016   0.111127042533605   1.0000000
N2   N   0.951986071709041   0.904201609630151   0.111004062994955   1.0000000
N2   N   0.952296547438411   0.047502078363350   0.111003127132378   1.0000000
N2   N   0.952366474424295   0.190551814032123   0.111025892502678   1.0000000
N2   N   0.952185582429282   0.333413636023702   0.111008752415072   1.0000000
N2   N   0.951616419671455   0.476164670873388   0.110978702197221   1.0000000
N2   N   0.952143596320311   0.618867809612938   0.111024845512136   1.0000000
N2   N   0.952270125987208   0.761685262358982   0.111037372176667   1.0000000
N2   N   0.095060247656519   0.904600154466047   0.110967803780612   1.0000000
N2   N   0.095029479392990   0.047279590733838   0.111005122543597   1.0000000
N2   N   0.094946653051461   0.190053736541286   0.110985639129247   1.0000000
N2   N   0.095448152570811   0.333457336693428   0.110991633764062   1.0000000
N2   N   0.094604438282354   0.476197761759750   0.111016721495486   1.0000000
N2   N   0.094523575066071   0.619009536590273   0.111013282816478   1.0000000
N2   N   0.094949607516872   0.761869423761441   0.110979151916019   1.0000000
N2   N   0.237967836836222   0.904817218125361   0.110979724007220   1.0000000
N2   N   0.238002732101183   0.047291282132584   0.111042392975684   1.0000000
N2   N   0.238214181725511   0.190001822457013   0.111042850121641   1.0000000
N2   N   0.237844308135124   0.332235158682370   0.111001700364289   1.0000000
N2   N   0.237873479426010   0.476709789847713   0.111017435786648   1.0000000
N2   N   0.236796675706391   0.619387545848093   0.111053367848213   1.0000000
N2   N   0.237678279997657   0.762216629079313   0.111036604701488   1.0000000
N2   N   0.380982412626638   0.905301494083951   0.111008492830706   1.0000000
N2   N   0.381094595254630   0.047517903152034   0.111028713687651   1.0000000
N2   N   0.381128509745534   0.189482164032787   0.111083770438754   1.0000000
N2   N   0.382019334583545   0.331664595334407   0.111020112063242   1.0000000
N2   N   0.378898493569181   0.621235295970528   0.111039228938947   1.0000000
N2   N   0.380645893877413   0.763152173469861   0.111051144387729   1.0000000
N2   N   0.523914727345278   0.905287212644383   0.111016703025901   1.0000000
N2   N   0.523999919548938   0.047941529435749   0.110966867546875   1.0000000
N2   N   0.524051608400136   0.190594889079571   0.111012249482578   1.0000000
N2   N   0.524083734604800   0.332962371884912   0.111015757969233   1.0000000
N2   N   0.528391916548998   0.477212287939311   0.111012915564811   1.0000000
N2   N   0.523501943889409   0.762344047492861   0.111013435795543   1.0000000
N2   N   0.666723540039469   0.904533001523351   0.110995924447883   1.0000000
N2   N   0.666726096611771   0.047785165522448   0.111013860062221   1.0000000
N2   N   0.666672813570164   0.190976139267619   0.111011616630429   1.0000000
N2   N   0.666519759978636   0.334491751663929   0.110974731806668   1.0000000
N2   N   0.664582561872230   0.478226177800253   0.111047726595296   1.0000000
N2   N   0.665809350738497   0.614037469923912   0.111083353145011   1.0000000
N2   N   0.668255005959015   0.762246586548164   0.110992465107333   1.0000000
N2   N   0.809884608320682   0.904951908212778   0.110985911418299   1.0000000
N2   N   0.809514510547945   0.047679107950505   0.111026594043581   1.0000000
N2   N   0.809431876794854   0.190656188957263   0.111053597073783   1.0000000
N2   N   0.809180456118454   0.333583278208812   0.111015137263609   1.0000000
N2   N   0.808268772315313   0.476278661818125   0.110993676879867   1.0000000
N2   N   0.810035799311887   0.618798448565538   0.111071397668480   1.0000000
N2   N   0.808656773722305   0.760423548788106   0.111019365084560   1.0000000


