data_1
_audit_creation_method   'vasp2cif'
_cell_length_a    14.93631414619966
_cell_length_b    14.936314146199727
_cell_length_c    13.341276283792837
_cell_angle_alpha    90.0
_cell_angle_beta    90.0
_cell_angle_gamma    119.99999999999984

_symmetry_space_group_name_H-M    'P 1'
loop_
_atom_site_label
_atom_site_type_symbol
_atom_site_fract_x
_atom_site_fract_y
_atom_site_fract_z
_atom_site_occupancy
Se2   Se   0.496847726972843   0.415090530153086   0.375000000000000   1.0000000
N2   N   0.111046974420528   0.055503477426492   0.125205187070798   1.0000000
N2   N   0.610982683352359   0.555479220377738   0.124817416941578   1.0000000
N2   N   0.444385255210316   0.055522313503929   0.125194522157085   1.0000000
N2   N   0.944362698595688   0.555525134028591   0.125214385538393   1.0000000
N2   N   0.777733142107076   0.055533237720202   0.125069419259627   1.0000000
N2   N   0.111046135450190   0.722189734391759   0.624893822233530   1.0000000
N2   N   0.444385255210316   0.722196275039723   0.624805477842915   1.0000000
N2   N   0.277698529309320   0.222175475254437   0.625262860789736   1.0000000
N2   N   0.777674337954743   0.722145890602840   0.624656335688630   1.0000000
N2   N   0.611030800094913   0.222184140782065   0.624779001386898   1.0000000
N2   N   0.944393303323220   0.222208219850370   0.624860489950103   1.0000000
N2   N   0.277719972481703   0.722198152066120   0.125134951876581   1.0000000
N2   N   0.111053023999269   0.222193178666303   0.125155625228359   1.0000000
N2   N   0.444373220435514   0.222182167467871   0.124740298749820   1.0000000
N2   N   0.611030800094913   0.722179992646177   0.125220998613102   1.0000000
N2   N   0.944362698595688   0.722170897900441   0.125214385538393   1.0000000
N2   N   0.777716167267967   0.222205719071676   0.125153161958999   1.0000000
N2   N   0.111046105418808   0.888840718787265   0.624862337830935   1.0000000
N2   N   0.444394449165685   0.888863891249507   0.624864929997097   1.0000000
N2   N   0.277698529309320   0.388856387388212   0.625262860789736   1.0000000
N2   N   0.610982683352359   0.388836796307950   0.625182583058422   1.0000000
N2   N   0.777716167267967   0.888843781529620   0.624846838041001   1.0000000
N2   N   0.944374342015338   0.388878719001818   0.624815057682325   1.0000000
N2   N   0.111046974420528   0.388876830327364   0.125205187070798   1.0000000
N2   N   0.277719972481703   0.888855153748913   0.125134951876581   1.0000000
N2   N   0.611059865388988   0.888866253884911   0.125115024512215   1.0000000
N2   N   0.444271272856934   0.388802303095128   0.122927605551818   1.0000000
N2   N   0.944374342015338   0.888828956346842   0.125184942317675   1.0000000
N2   N   0.777674337954743   0.388861780685238   0.125343664311370   1.0000000
N2   N   0.277717774136686   0.555538415453926   0.624878744276089   1.0000000
N2   N   0.111046974420528   0.055503477426492   0.624794812929202   1.0000000
N2   N   0.610982683352359   0.555479220377738   0.625182583058422   1.0000000
N2   N   0.444385255210316   0.055522313503929   0.624805477842915   1.0000000
N2   N   0.944362698595688   0.555525134028591   0.624785614461607   1.0000000
N2   N   0.111046105418808   0.555538719964872   0.125137662169065   1.0000000
N2   N   0.777733142107076   0.055533237720202   0.624930580740373   1.0000000
N2   N   0.277717774136686   0.055512692016103   0.125121255723911   1.0000000
N2   N   0.444373220435514   0.555524386300979   0.124740298749820   1.0000000
N2   N   0.777669156187881   0.555501244760608   0.125360386784163   1.0000000
N2   N   0.611059865388988   0.055526944837398   0.125115024512215   1.0000000
N2   N   0.444373220435514   0.555524386300979   0.625259701250181   1.0000000
N2   N   0.944393303323220   0.055518416806186   0.125139510049897   1.0000000
N2   N   0.277719972481703   0.722198152066120   0.624865048123419   1.0000000
N2   N   0.111053023999269   0.222193178666303   0.624844374771641   1.0000000
N2   N   0.444373220435514   0.222182167467871   0.625259701250181   1.0000000
N2   N   0.611030800094913   0.722179992646177   0.624779001386898   1.0000000
N2   N   0.944362698595688   0.722170897900441   0.624785614461607   1.0000000
N2   N   0.777716167267967   0.222205719071676   0.624846838041001   1.0000000
N2   N   0.111046135450190   0.722189734391759   0.125106177766470   1.0000000
N2   N   0.444385255210316   0.722196275039723   0.125194522157085   1.0000000
N2   N   0.277698529309320   0.222175475254437   0.124737139210256   1.0000000
N2   N   0.777674337954743   0.722145890602840   0.125343664311370   1.0000000
N2   N   0.611030800094913   0.222184140782065   0.125220998613102   1.0000000
N2   N   0.944393303323220   0.222208219850370   0.125139510049897   1.0000000
N2   N   0.111046974420528   0.388876830327364   0.624794812929202   1.0000000
N2   N   0.277719972481703   0.888855153748913   0.624865048123419   1.0000000
N2   N   0.611059865388988   0.888866253884911   0.624884975487785   1.0000000
N2   N   0.444271272856934   0.388802303095128   0.627072394448182   1.0000000
N2   N   0.944374342015338   0.888828956346842   0.624815057682325   1.0000000
N2   N   0.111046105418808   0.888840718787265   0.125137662169065   1.0000000
N2   N   0.777674337954743   0.388861780685238   0.624656335688630   1.0000000
N2   N   0.444394449165685   0.888863891249507   0.125135070002903   1.0000000
N2   N   0.277698529309320   0.388856387388212   0.124737139210256   1.0000000
N2   N   0.277717774136686   0.555538415453926   0.125121255723911   1.0000000
N2   N   0.610982683352359   0.388836796307950   0.124817416941578   1.0000000
N2   N   0.777716167267967   0.888843781529620   0.125153161958999   1.0000000
N2   N   0.944374342015338   0.388878719001818   0.125184942317675   1.0000000
N2   N   0.111046105418808   0.555538719964872   0.624862337830935   1.0000000
N2   N   0.277717774136686   0.055512692016103   0.624878744276089   1.0000000
N2   N   0.777669156187881   0.555501244760608   0.624639613215836   1.0000000
N2   N   0.611059865388988   0.055526944837398   0.624884975487785   1.0000000
N2   N   0.944393303323220   0.055518416806186   0.624860489950103   1.0000000
N2   N   0.057416315692513   0.112329985931869   0.375000000000000   1.0000000
N2   N   0.553742216822698   0.618552248855958   0.375000000000000   1.0000000
N2   N   0.386760438484039   0.105755979385266   0.375000000000000   1.0000000
N2   N   0.884478573077202   0.608905953205273   0.375000000000000   1.0000000
N2   N   0.722769642431083   0.110614293660358   0.375000000000000   1.0000000
N2   N   0.055541824883327   0.777772298175431   0.875000000000000   1.0000000
N2   N   0.388882910300602   0.777775855404086   0.875000000000000   1.0000000
N2   N   0.222204805078922   0.277769069206129   0.875000000000000   1.0000000
N2   N   0.722215619931169   0.777777043991317   0.875000000000000   1.0000000
N2   N   0.555547701371541   0.277773057205702   0.875000000000000   1.0000000
N2   N   0.888881761616453   0.277772945537420   0.875000000000000   1.0000000
N2   N   0.219340928016515   0.776337130674921   0.375000000000000   1.0000000
N2   N   0.057416315692513   0.278419663093979   0.375000000000000   1.0000000
N2   N   0.392484165154334   0.273228662014717   0.375000000000000   1.0000000
N2   N   0.554605656342604   0.780875428941487   0.375000000000000   1.0000000
N2   N   0.886936505205038   0.777173300991042   0.375000000000000   1.0000000
N2   N   0.722178190337407   0.275786342144336   0.375000000000000   1.0000000
N2   N   0.055541137669295   0.944438668441044   0.875000000000000   1.0000000
N2   N   0.388882910300602   0.944440388229852   0.875000000000000   1.0000000
N2   N   0.222204060041866   0.444435873111929   0.875000000000000   1.0000000
N2   N   0.555550260375083   0.444441796854206   0.875000000000000   1.0000000
N2   N   0.722213066062134   0.944442174555909   0.875000000000000   1.0000000
N2   N   0.888879880702616   0.444436847832330   0.875000000000000   1.0000000
N2   N   0.055190365397669   0.444026340139116   0.375000000000000   1.0000000
N2   N   0.219866594774956   0.942383201449564   0.375000000000000   1.0000000
N2   N   0.554725865454320   0.944029599393821   0.375000000000000   1.0000000
N2   N   0.392484165154334   0.452588836472953   0.375000000000000   1.0000000
N2   N   0.889645458187185   0.945502388187567   0.375000000000000   1.0000000
N2   N   0.717896310994086   0.441716264305637   0.375000000000000   1.0000000
N2   N   0.222207827453556   0.611102562340183   0.875000000000000   1.0000000
N2   N   0.055540980034382   0.111104182133575   0.875000000000000   1.0000000
N2   N   0.555547701371541   0.611107977499182   0.875000000000000   1.0000000
N2   N   0.388879140555076   0.111105655768239   0.875000000000000   1.0000000
N2   N   0.888878608214595   0.611105970773969   0.875000000000000   1.0000000
N2   N   0.052456783296520   0.609722127276074   0.375000000000000   1.0000000
N2   N   0.722213066062134   0.111104224839568   0.875000000000000   1.0000000
N2   N   0.223901406498620   0.111846055560438   0.375000000000000   1.0000000
N2   N   0.386760438484039   0.614337792432122   0.375000000000000   1.0000000
N2   N   0.717896310994086   0.609513380021785   0.375000000000000   1.0000000
N2   N   0.554605656342604   0.107063560734452   0.375000000000000   1.0000000
N2   N   0.388879140555076   0.611106818120188   0.875000000000000   1.0000000
N2   N   0.890281832310482   0.111807582821916   0.375000000000000   1.0000000
N2   N   0.222211787438618   0.777772560385973   0.875000000000000   1.0000000
N2   N   0.055540980034382   0.277770131234142   0.875000000000000   1.0000000
N2   N   0.388874841560496   0.277767842436700   0.875000000000000   1.0000000
N2   N   0.555548499652458   0.777776676500331   0.875000000000000   1.0000000
N2   N   0.888879880702616   0.777776366203622   0.875000000000000   1.0000000
N2   N   0.722215619931169   0.277771909273188   0.875000000000000   1.0000000
N2   N   0.052456783296520   0.776067989353782   0.375000000000000   1.0000000
N2   N   0.386750437332381   0.778044556077030   0.375000000000000   1.0000000
N2   N   0.225710225285470   0.279521779309406   0.375000000000000   1.0000000
N2   N   0.722178190337407   0.779725181526407   0.375000000000000   1.0000000
N2   N   0.553742216822698   0.268523301300075   0.375000000000000   1.0000000
N2   N   0.889645458187185   0.277476403332953   0.375000000000000   1.0000000
N2   N   0.055541137669295   0.444435802561580   0.875000000000000   1.0000000
N2   N   0.222207827453556   0.944438598446708   0.875000000000000   1.0000000
N2   N   0.555548543788346   0.944440938560841   0.875000000000000   1.0000000
N2   N   0.388874841560496   0.444440332457131   0.875000000000000   1.0000000
N2   N   0.888881761616453   0.944442149412369   0.875000000000000   1.0000000
N2   N   0.055190365397669   0.944497358591883   0.375000000000000   1.0000000
N2   N   0.722214860202984   0.444440089649471   0.875000000000000   1.0000000
N2   N   0.386750437332381   0.942039214588687   0.375000000000000   1.0000000
N2   N   0.223901406498620   0.445388684271518   0.375000000000000   1.0000000
N2   N   0.219866594774956   0.610816726658727   0.375000000000000   1.0000000
N2   N   0.722769642431083   0.945488682104062   0.375000000000000   1.0000000
N2   N   0.886936505205038   0.443096537547331   0.375000000000000   1.0000000
N2   N   0.055541824883327   0.611102860041232   0.875000000000000   1.0000000
N2   N   0.222204060041866   0.111101520263273   0.875000000000000   1.0000000
N2   N   0.722214860202984   0.611108103886849   0.875000000000000   1.0000000
N2   N   0.555548499652458   0.111105156485462   0.875000000000000   1.0000000
N2   N   0.888880865283089   0.111107099308216   0.875000000000000   1.0000000
B2   B   0.112098842485669   0.056130237027774   0.375000000000000   1.0000000
B2   B   0.610460525437257   0.568773340999283   0.375000000000000   1.0000000
B2   B   0.443298567621699   0.051812513623142   0.375000000000000   1.0000000
B2   B   0.941532415213249   0.554150198681396   0.375000000000000   1.0000000
B2   B   0.779140767915339   0.056237050624334   0.375000000000000   1.0000000
B2   B   0.111105506002807   0.722219419668068   0.875000000000000   1.0000000
B2   B   0.444432370491589   0.722230013259587   0.875000000000000   1.0000000
B2   B   0.277737810310963   0.222197426597738   0.875000000000000   1.0000000
B2   B   0.777786313068991   0.722246021118826   0.875000000000000   1.0000000
B2   B   0.611110601473690   0.222198523420645   0.875000000000000   1.0000000
B2   B   0.944430773580318   0.222209819019861   0.875000000000000   1.0000000
B2   B   0.275465767254857   0.721747878503530   0.375000000000000   1.0000000
B2   B   0.113580957840637   0.223457145586983   0.375000000000000   1.0000000
B2   B   0.443039523897571   0.214558565501451   0.375000000000000   1.0000000
B2   B   0.611890593209835   0.729020902808129   0.375000000000000   1.0000000
B2   B   0.941532415213249   0.720715549865189   0.375000000000000   1.0000000
B2   B   0.778867502093586   0.221260713686500   0.375000000000000   1.0000000
B2   B   0.111097419650370   0.888884980464106   0.875000000000000   1.0000000
B2   B   0.444436622898395   0.888884978115866   0.875000000000000   1.0000000
B2   B   0.277737810310963   0.388873717046546   0.875000000000000   1.0000000
B2   B   0.611107614417460   0.388877008961490   0.875000000000000   1.0000000
B2   B   0.777779671827993   0.888907027524192   0.875000000000000   1.0000000
B2   B   0.944440631726245   0.388875050860943   0.875000000000000   1.0000000
B2   B   0.112098842485669   0.389301938791224   0.375000000000000   1.0000000
B2   B   0.275465767254857   0.887051222084656   0.375000000000000   1.0000000
B2   B   0.611585568417966   0.891002645149429   0.375000000000000   1.0000000
B2   B   0.944074251067708   0.889161079137287   0.375000000000000   1.0000000
B2   B   0.776464561555484   0.386483854104148   0.375000000000000   1.0000000
B2   B   0.277751532127792   0.555549650817492   0.875000000000000   1.0000000
B2   B   0.111083659185563   0.055542115170594   0.875000000000000   1.0000000
B2   B   0.611107614417460   0.555563938789291   0.875000000000000   1.0000000
B2   B   0.444432370491589   0.055535690565337   0.875000000000000   1.0000000
B2   B   0.944449226833088   0.555551866447359   0.875000000000000   1.0000000
B2   B   0.108931507203818   0.554918085254942   0.375000000000000   1.0000000
B2   B   0.777774738854262   0.055554036093803   0.875000000000000   1.0000000
B2   B   0.276054808904402   0.052966081720719   0.375000000000000   1.0000000
B2   B   0.443039523897571   0.561814291729449   0.375000000000000   1.0000000
B2   B   0.773782530060516   0.553557931696926   0.375000000000000   1.0000000
B2   B   0.611585568417966   0.053916256601857   0.375000000000000   1.0000000
B2   B   0.444420372892617   0.555558180646549   0.875000000000000   1.0000000
B2   B   0.946055100167402   0.056711448435005   0.375000000000000   1.0000000
B2   B   0.277765134636999   0.722219746759221   0.875000000000000   1.0000000
B2   B   0.111078601169854   0.222205967251592   0.875000000000000   1.0000000
B2   B   0.444420372892617   0.222195525579411   0.875000000000000   1.0000000
B2   B   0.611110601473690   0.722245411386366   0.875000000000000   1.0000000
B2   B   0.944449226833088   0.722230693719065   0.875000000000000   1.0000000
B2   B   0.777779671827993   0.222205977637129   0.875000000000000   1.0000000
B2   B   0.108232508197435   0.720782920765381   0.375000000000000   1.0000000
B2   B   0.443298567621699   0.724819387331893   0.375000000000000   1.0000000
B2   B   0.280809757962469   0.223862436387704   0.375000000000000   1.0000000
B2   B   0.776464561555484   0.723314040784665   0.375000000000000   1.0000000
B2   B   0.611890593209835   0.216203023735035   0.375000000000000   1.0000000
B2   B   0.946055100167402   0.222676985065732   0.375000000000000   1.0000000
B2   B   0.111083659185563   0.388874877348298   0.875000000000000   1.0000000
B2   B   0.277765134636999   0.888878721211107   0.875000000000000   1.0000000
B2   B   0.611109149814770   0.888899704239308   0.875000000000000   1.0000000
B2   B   0.444417843773072   0.388875588553200   0.875000000000000   1.0000000
B2   B   0.944440631726245   0.888898914198631   0.875000000000000   1.0000000
B2   B   0.108931507203818   0.887346755282203   0.375000000000000   1.0000000
B2   B   0.777786313068991   0.388873625283493   0.875000000000000   1.0000000
B2   B   0.443323125801488   0.888328229567408   0.375000000000000   1.0000000
B2   B   0.280809757962469   0.390280654908094   0.375000000000000   1.0000000
B2   B   0.276054808904402   0.556422060517012   0.375000000000000   1.0000000
B2   B   0.610460525437257   0.375020517771297   0.375000000000000   1.0000000
B2   B   0.778867502093586   0.890940121740415   0.375000000000000   1.0000000
B2   B   0.944074251067708   0.388246505263750   0.375000000000000   1.0000000
B2   B   0.111097419650370   0.555545772519586   0.875000000000000   1.0000000
B2   B   0.277751532127792   0.055535214643636   0.875000000000000   1.0000000
B2   B   0.777789054568019   0.555561193950681   0.875000000000000   1.0000000
B2   B   0.611109149814770   0.055542778908783   0.875000000000000   1.0000000
B2   B   0.944430773580318   0.055554287893785   0.875000000000000   1.0000000
B2   B   0.055479859084965   0.111055245371140   0.124959195704552   1.0000000
B2   B   0.555442019139866   0.611145352219249   0.124419446314082   1.0000000
B2   B   0.388772587507709   0.110975912547007   0.124757002544627   1.0000000
B2   B   0.888896408159849   0.611114870746596   0.124950820606680   1.0000000
B2   B   0.722174838590067   0.111064071478937   0.124885973718317   1.0000000
B2   B   0.055530679812936   0.777753736021147   0.625066733662155   1.0000000
B2   B   0.388805030079873   0.777773503842374   0.625055879834056   1.0000000
B2   B   0.222096917677815   0.277715125505572   0.625451543896816   1.0000000
B2   B   0.722176799481187   0.777808093270951   0.625102606063438   1.0000000
B2   B   0.555442019139866   0.277630000253946   0.625580553685918   1.0000000
B2   B   0.888852920989146   0.277757735143134   0.625058892664093   1.0000000
B2   B   0.222159265484186   0.777746299408760   0.124922504318266   1.0000000
B2   B   0.055479859084965   0.277757947047161   0.124959195704552   1.0000000
B2   B   0.388719854123872   0.277656433992352   0.123725013691239   1.0000000
B2   B   0.555476339716066   0.777812313001269   0.124898794715056   1.0000000
B2   B   0.888876560898366   0.777776007285764   0.124974488725075   1.0000000
B2   B   0.722176799481187   0.277702039543571   0.124897393936561   1.0000000
B2   B   0.055498132440255   0.944387916114120   0.625021514641240   1.0000000
B2   B   0.388805030079873   0.944364859570842   0.625055879834056   1.0000000
B2   B   0.222104956538626   0.444437720622711   0.625162169839970   1.0000000
B2   B   0.555366578331519   0.444349955832427   0.626318706977937   1.0000000
B2   B   0.722174838590067   0.944444100444466   0.625114026281675   1.0000000
B2   B   0.888876560898366   0.444433886945937   0.625025511274932   1.0000000
B2   B   0.055498132440255   0.444443549659457   0.124978485358760   1.0000000
B2   B   0.222143763429997   0.944361511700195   0.124937245692624   1.0000000
B2   B   0.555486265797776   0.944409799565553   0.124902990435582   1.0000000
B2   B   0.388719854123872   0.444396753464856   0.123725013691239   1.0000000
B2   B   0.888852920989146   0.944428519179348   0.124941107335907   1.0000000
B2   B   0.722184531503253   0.444408609335512   0.124706204843202   1.0000000
B2   B   0.222143763429997   0.611115585063137   0.625062754307377   1.0000000
B2   B   0.055479859084965   0.111055245371140   0.625040804295448   1.0000000
B2   B   0.555442019139866   0.611145352219249   0.625580553685918   1.0000000
B2   B   0.388772587507709   0.110975912547007   0.625242997455373   1.0000000
B2   B   0.888896408159849   0.611114870746596   0.625049179393320   1.0000000
B2   B   0.055530679812936   0.611110277125125   0.124933266337852   1.0000000
B2   B   0.722174838590067   0.111064071478937   0.625114026281675   1.0000000
B2   B   0.222104956538626   0.111000569249250   0.124837830160030   1.0000000
B2   B   0.388772587507709   0.611130008294045   0.124757002544627   1.0000000
B2   B   0.722184531503253   0.611109255501084   0.124706204843202   1.0000000
B2   B   0.555476339716066   0.110997360048134   0.124898794715056   1.0000000
B2   B   0.388772587507709   0.611130008294045   0.625242997455373   1.0000000
B2   B   0.888840488810363   0.111086911071856   0.124912920344998   1.0000000
B2   B   0.222159265484186   0.777746299408760   0.625077495681734   1.0000000
B2   B   0.055479859084965   0.277757947047161   0.625040804295448   1.0000000
B2   B   0.388719854123872   0.277656433992352   0.626274986308761   1.0000000
B2   B   0.555476339716066   0.777812313001269   0.625101205284944   1.0000000
B2   B   0.888876560898366   0.777776007285764   0.625025511274932   1.0000000
B2   B   0.722176799481187   0.277702039543571   0.625102606063438   1.0000000
B2   B   0.055530679812936   0.777753736021147   0.124933266337852   1.0000000
B2   B   0.388805030079873   0.777773503842374   0.124944120165945   1.0000000
B2   B   0.222096917677815   0.277715125505572   0.124548456103185   1.0000000
B2   B   0.722176799481187   0.777808093270951   0.124897393936561   1.0000000
B2   B   0.555442019139866   0.277630000253946   0.124419446314082   1.0000000
B2   B   0.888852920989146   0.277757735143134   0.124941107335907   1.0000000
B2   B   0.055498132440255   0.444443549659457   0.625021514641240   1.0000000
B2   B   0.222143763429997   0.944361511700195   0.625062754307377   1.0000000
B2   B   0.555486265797776   0.944409799565553   0.625097009564418   1.0000000
B2   B   0.388719854123872   0.444396753464856   0.626274986308761   1.0000000
B2   B   0.888852920989146   0.944428519179348   0.625058892664093   1.0000000
B2   B   0.055498132440255   0.944387916114120   0.124978485358760   1.0000000
B2   B   0.722184531503253   0.444408609335512   0.625293795156798   1.0000000
B2   B   0.388805030079873   0.944364859570842   0.124944120165945   1.0000000
B2   B   0.222104956538626   0.444437720622711   0.124837830160030   1.0000000
B2   B   0.222143763429997   0.611115585063137   0.124937245692624   1.0000000
B2   B   0.555366578331519   0.444349955832427   0.123681293022063   1.0000000
B2   B   0.722174838590067   0.944444100444466   0.124885973718317   1.0000000
B2   B   0.888876560898366   0.444433886945937   0.124974488725075   1.0000000
B2   B   0.055530679812936   0.611110277125125   0.625066733662155   1.0000000
B2   B   0.222104956538626   0.111000569249250   0.625162169839970   1.0000000
B2   B   0.722184531503253   0.611109255501084   0.625293795156798   1.0000000
B2   B   0.555476339716066   0.110997360048134   0.625101205284944   1.0000000
B2   B   0.888840488810363   0.111086911071856   0.625087079655002   1.0000000


