data_1
_audit_creation_method   'vasp2cif'
_cell_length_a    14.93631414619966
_cell_length_b    14.936314146199727
_cell_length_c    13.341276283792837
_cell_angle_alpha    90.0
_cell_angle_beta    90.0
_cell_angle_gamma    119.99999999999984

_symmetry_space_group_name_H-M    'P 1'
loop_
_atom_site_label
_atom_site_type_symbol
_atom_site_fract_x
_atom_site_fract_y
_atom_site_fract_z
_atom_site_occupancy
Se2   Se   0.555555555555557   0.444444444444443   0.375000000000000   1.0000000
N2   N   0.111109602037042   0.055546763597827   0.125238945156016   1.0000000
N2   N   0.611126262953799   0.555585859240875   0.124658305684272   1.0000000
N2   N   0.444435264649879   0.055544899271941   0.125266832297867   1.0000000
N2   N   0.944455100728043   0.555564735350190   0.125266832297867   1.0000000
N2   N   0.777778061641573   0.055555697487437   0.125086465610870   1.0000000
N2   N   0.111116646061860   0.722224989697645   0.625182128227622   1.0000000
N2   N   0.444435264649879   0.722223698711306   0.624733167702200   1.0000000
N2   N   0.277766572801722   0.222212508698280   0.624604618123718   1.0000000
N2   N   0.777787491301810   0.722233427198201   0.624604618123718   1.0000000
N2   N   0.611112602563116   0.222212508698280   0.624604618123718   1.0000000
N2   N   0.944444302512585   0.222221938358456   0.624913534389179   1.0000000
N2   N   0.277775010302377   0.722224989697645   0.124817871772425   1.0000000
N2   N   0.111099499760612   0.222216416546987   0.125230305736215   1.0000000
N2   N   0.444444668874503   0.222222671082369   0.125480843609856   1.0000000
N2   N   0.611112602563116   0.722233427198201   0.125395381876291   1.0000000
N2   N   0.944455100728043   0.722223698711306   0.125266832297867   1.0000000
N2   N   0.777783583453015   0.222216416546987   0.125230305736215   1.0000000
N2   N   0.111115364466276   0.888884635533692   0.624993158522171   1.0000000
N2   N   0.444435937734152   0.888884635533692   0.624993158522171   1.0000000
N2   N   0.277766572801722   0.388887397436797   0.624604618123718   1.0000000
N2   N   0.611126262953799   0.388873737046227   0.625341694315650   1.0000000
N2   N   0.777783583453015   0.888900500239437   0.624769694263821   1.0000000
N2   N   0.944453236402197   0.388896171772565   0.624761054844030   1.0000000
N2   N   0.111109602037042   0.388896171772565   0.125238945156016   1.0000000
N2   N   0.277775010302377   0.888883353938083   0.124817871772425   1.0000000
N2   N   0.611103828227391   0.888890397962904   0.125238945156016   1.0000000
N2   N   0.444414140759127   0.388873737046227   0.124658305684272   1.0000000
N2   N   0.944453236402197   0.888890397962904   0.125238945156016   1.0000000
N2   N   0.777787491301810   0.388887397436797   0.125395381876291   1.0000000
N2   N   0.277776301288744   0.555564735350190   0.624733167702200   1.0000000
N2   N   0.111109602037042   0.055546763597827   0.624761054844030   1.0000000
N2   N   0.611126262953799   0.555585859240875   0.625341694315650   1.0000000
N2   N   0.444435264649879   0.055544899271941   0.624733167702200   1.0000000
N2   N   0.944455100728043   0.555564735350190   0.624733167702200   1.0000000
N2   N   0.111115364466276   0.555564062265766   0.125006841477778   1.0000000
N2   N   0.777778061641573   0.055555697487437   0.624913534389179   1.0000000
N2   N   0.277776301288744   0.055544899271941   0.125266832297867   1.0000000
N2   N   0.444444668874503   0.555555331125473   0.125480843609856   1.0000000
N2   N   0.777777328917659   0.555555331125473   0.125480843609856   1.0000000
N2   N   0.611103828227391   0.055546763597827   0.125238945156016   1.0000000
N2   N   0.444444668874503   0.555555331125473   0.624519156390178   1.0000000
N2   N   0.944444302512585   0.055555697487437   0.125086465610870   1.0000000
N2   N   0.277775010302377   0.722224989697645   0.625182128227622   1.0000000
N2   N   0.111099499760612   0.222216416546987   0.624769694263821   1.0000000
N2   N   0.444444668874503   0.222222671082369   0.624519156390178   1.0000000
N2   N   0.611112602563116   0.722233427198201   0.624604618123718   1.0000000
N2   N   0.944455100728043   0.722223698711306   0.624733167702200   1.0000000
N2   N   0.777783583453015   0.222216416546987   0.624769694263821   1.0000000
N2   N   0.111116646061860   0.722224989697645   0.124817871772425   1.0000000
N2   N   0.444435264649879   0.722223698711306   0.125266832297867   1.0000000
N2   N   0.277766572801722   0.222212508698280   0.125395381876291   1.0000000
N2   N   0.777787491301810   0.722233427198201   0.125395381876291   1.0000000
N2   N   0.611112602563116   0.222212508698280   0.125395381876291   1.0000000
N2   N   0.944444302512585   0.222221938358456   0.125086465610870   1.0000000
N2   N   0.111109602037042   0.388896171772565   0.624761054844030   1.0000000
N2   N   0.277775010302377   0.888883353938083   0.625182128227622   1.0000000
N2   N   0.611103828227391   0.888890397962904   0.624761054844030   1.0000000
N2   N   0.444414140759127   0.388873737046227   0.625341694315650   1.0000000
N2   N   0.944453236402197   0.888890397962904   0.624761054844030   1.0000000
N2   N   0.111115364466276   0.888884635533692   0.125006841477778   1.0000000
N2   N   0.777787491301810   0.388887397436797   0.624604618123718   1.0000000
N2   N   0.444435937734152   0.888884635533692   0.125006841477778   1.0000000
N2   N   0.277766572801722   0.388887397436797   0.125395381876287   1.0000000
N2   N   0.277776301288744   0.555564735350190   0.125266832297867   1.0000000
N2   N   0.611126262953799   0.388873737046227   0.124658305684272   1.0000000
N2   N   0.777783583453015   0.888900500239437   0.125230305736215   1.0000000
N2   N   0.944453236402197   0.388896171772565   0.125238945156016   1.0000000
N2   N   0.111115364466267   0.555564062265766   0.624993158522171   1.0000000
N2   N   0.277776301288744   0.055544899271941   0.624733167702200   1.0000000
N2   N   0.777777328917659   0.555555331125473   0.624519156390178   1.0000000
N2   N   0.611103828227391   0.055546763597827   0.624761054844030   1.0000000
N2   N   0.944444302512585   0.055555697487437   0.624913534389179   1.0000000
N2   N   0.054572982949744   0.110476262399929   0.375000000000000   1.0000000
N2   N   0.555602342923963   0.619408880554296   0.375000000000000   1.0000000
N2   N   0.387826588010751   0.108986509354956   0.375000000000000   1.0000000
N2   N   0.891013490645154   0.612173411989244   0.375000000000000   1.0000000
N2   N   0.722569946116868   0.110476262399929   0.375000000000000   1.0000000
N2   N   0.055549643536383   0.777778284019890   0.875000000000000   1.0000000
N2   N   0.388895307150160   0.777778284019890   0.875000000000000   1.0000000
N2   N   0.222222645391319   0.277777989362315   0.875000000000000   1.0000000
N2   N   0.722222010637594   0.777777354608707   0.875000000000000   1.0000000
N2   N   0.555555513943750   0.277780416742331   0.875000000000000   1.0000000
N2   N   0.888888865715154   0.277776790065549   0.875000000000000   1.0000000
N2   N   0.222222222222221   0.777777777777779   0.375000000000000   1.0000000
N2   N   0.054572982949744   0.277430053883105   0.375000000000000   1.0000000
N2   N   0.380591119445712   0.269526795703016   0.375000000000000   1.0000000
N2   N   0.555241413663424   0.781083679292930   0.375000000000000   1.0000000
N2   N   0.892508932296242   0.781083679292930   0.375000000000000   1.0000000
N2   N   0.723770190337196   0.276229809662843   0.375000000000000   1.0000000
N2   N   0.055552709764003   0.944447290236088   0.875000000000000   1.0000000
N2   N   0.388895307150160   0.944450356463533   0.875000000000000   1.0000000
N2   N   0.222220336235182   0.444439560726498   0.875000000000000   1.0000000
N2   N   0.555555555555557   0.444444444444443   0.875000000000000   1.0000000
N2   N   0.722223209934335   0.944445408982874   0.875000000000000   1.0000000
N2   N   0.888885891157917   0.444439560726498   0.875000000000000   1.0000000
N2   N   0.055706672368565   0.444746678070444   0.375000000000000   1.0000000
N2   N   0.221889294561798   0.943594386824630   0.375000000000000   1.0000000
N2   N   0.555253321929551   0.944293327631381   0.375000000000000   1.0000000
N2   N   0.380591119445712   0.444397657075916   0.375000000000000   1.0000000
N2   N   0.889523737600112   0.945427017050216   0.375000000000000   1.0000000
N2   N   0.730473204296763   0.444397657075896   0.375000000000000   1.0000000
N2   N   0.222221715980095   0.611104692849782   0.875000000000000   1.0000000
N2   N   0.055554591017024   0.111111134284781   0.875000000000000   1.0000000
N2   N   0.555555513943750   0.611108430534816   0.875000000000000   1.0000000
N2   N   0.388892322627533   0.111117978588420   0.875000000000000   1.0000000
N2   N   0.888882021411591   0.611107677372479   0.875000000000000   1.0000000
N2   N   0.056405613175428   0.611628241070605   0.375000000000000   1.0000000
N2   N   0.722223209934335   0.111111134284781   0.875000000000000   1.0000000
N2   N   0.218916320707061   0.107491067703828   0.375000000000000   1.0000000
N2   N   0.387826588010751   0.612173411989244   0.375000000000000   1.0000000
N2   N   0.730473204296763   0.619408880554296   0.375000000000000   1.0000000
N2   N   0.555241413663424   0.107491067703828   0.375000000000000   1.0000000
N2   N   0.388892322627533   0.611107677372479   0.875000000000000   1.0000000
N2   N   0.888888888888886   0.111111111111114   0.375000000000000   1.0000000
N2   N   0.222222222222221   0.777777777777779   0.875000000000000   1.0000000
N2   N   0.055554591017024   0.277776790065549   0.875000000000000   1.0000000
N2   N   0.388891569465221   0.277780416742331   0.875000000000000   1.0000000
N2   N   0.555560439273581   0.777779663764867   0.875000000000000   1.0000000
N2   N   0.888885891157912   0.777779663764867   0.875000000000000   1.0000000
N2   N   0.722222010637594   0.277777989362315   0.875000000000000   1.0000000
N2   N   0.056405613175428   0.778110705438219   0.375000000000000   1.0000000
N2   N   0.388371758929453   0.778110705438219   0.375000000000000   1.0000000
N2   N   0.219126285992393   0.276229809662843   0.375000000000000   1.0000000
N2   N   0.723770190337196   0.780873714007650   0.375000000000000   1.0000000
N2   N   0.555602342923963   0.269526795703016   0.375000000000000   1.0000000
N2   N   0.889523737600112   0.277430053883105   0.375000000000000   1.0000000
N2   N   0.055552709764003   0.444438752861373   0.875000000000000   1.0000000
N2   N   0.222221715980095   0.944450356463533   0.875000000000000   1.0000000
N2   N   0.555561247138591   0.944447290236088   0.875000000000000   1.0000000
N2   N   0.388891569465221   0.444444486056251   0.875000000000000   1.0000000
N2   N   0.888888865715154   0.944445408982874   0.875000000000000   1.0000000
N2   N   0.055706672368565   0.944293327631381   0.375000000000000   1.0000000
N2   N   0.722219583257620   0.444444486056251   0.875000000000000   1.0000000
N2   N   0.388371758929453   0.943594386824630   0.375000000000000   1.0000000
N2   N   0.218916320707056   0.444758586336539   0.375000000000000   1.0000000
N2   N   0.221889294561798   0.611628241070605   0.375000000000000   1.0000000
N2   N   0.722569946116879   0.945427017050216   0.375000000000000   1.0000000
N2   N   0.892508932296242   0.444758586336539   0.375000000000000   1.0000000
N2   N   0.055549643536383   0.611104692849782   0.875000000000000   1.0000000
N2   N   0.222220336235182   0.111114108842055   0.875000000000000   1.0000000
N2   N   0.722219583257620   0.611108430534816   0.875000000000000   1.0000000
N2   N   0.555560439273581   0.111114108842055   0.875000000000000   1.0000000
N2   N   0.888888888888886   0.111111111111114   0.875000000000000   1.0000000
B2   B   0.108946143063118   0.053983739571568   0.375000000000000   1.0000000
B2   B   0.624539079384327   0.582411492101765   0.375000000000000   1.0000000
B2   B   0.444050331892686   0.053668759095842   0.375000000000000   1.0000000
B2   B   0.946331240904015   0.555949668107242   0.375000000000000   1.0000000
B2   B   0.778328342009075   0.055830837671187   0.375000000000000   1.0000000
B2   B   0.111113998632121   0.722223665982729   0.875000000000000   1.0000000
B2   B   0.444447121567527   0.722239983138428   0.875000000000000   1.0000000
B2   B   0.277741694672066   0.222200736171357   0.875000000000000   1.0000000
B2   B   0.777799263828674   0.722258305327804   0.875000000000000   1.0000000
B2   B   0.611125708165872   0.222200736171357   0.875000000000000   1.0000000
B2   B   0.944439010590409   0.222211354514088   0.875000000000000   1.0000000
B2   B   0.277498569180496   0.722501430819555   0.375000000000000   1.0000000
B2   B   0.108604629515750   0.220968981424532   0.375000000000000   1.0000000
B2   B   0.442508325658732   0.218349984650749   0.375000000000000   1.0000000
B2   B   0.612497635992536   0.729640484232003   0.375000000000000   1.0000000
B2   B   0.946331240904015   0.723714906130177   0.375000000000000   1.0000000
B2   B   0.779031018575371   0.220968981424532   0.375000000000000   1.0000000
B2   B   0.111106433998145   0.888893566001880   0.875000000000000   1.0000000
B2   B   0.444453798670358   0.888893566001880   0.875000000000000   1.0000000
B2   B   0.277741694672066   0.388874291834096   0.875000000000000   1.0000000
B2   B   0.611121123684833   0.388878876315226   0.875000000000000   1.0000000
B2   B   0.777792568053826   0.888918469441109   0.875000000000000   1.0000000
B2   B   0.944451029236213   0.388874826774955   0.875000000000000   1.0000000
B2   B   0.108946143063118   0.388295736824909   0.375000000000000   1.0000000
B2   B   0.277498569180496   0.888330471694321   0.375000000000000   1.0000000
B2   B   0.611704263175099   0.891053856936987   0.375000000000000   1.0000000
B2   B   0.417588507898167   0.375460920615782   0.375000000000000   1.0000000
B2   B   0.946016260428381   0.891053856936987   0.375000000000000   1.0000000
B2   B   0.783809514906193   0.387502364007551   0.375000000000000   1.0000000
B2   B   0.277760016861597   0.555552878432584   0.875000000000000   1.0000000
B2   B   0.111090464205516   0.055548970763857   0.875000000000000   1.0000000
B2   B   0.611121123684833   0.555575580702877   0.875000000000000   1.0000000
B2   B   0.444447121567527   0.055540471762383   0.875000000000000   1.0000000
B2   B   0.944459528237577   0.555552878432584   0.875000000000000   1.0000000
B2   B   0.111199816766592   0.555732966866405   0.375000000000000   1.0000000
B2   B   0.777788645485959   0.055560989409615   0.875000000000000   1.0000000
B2   B   0.276285093869829   0.053668759095842   0.375000000000000   1.0000000
B2   B   0.442508325658732   0.557491674341343   0.375000000000000   1.0000000
B2   B   0.781650015349199   0.557491674341343   0.375000000000000   1.0000000
B2   B   0.611704263175099   0.053983739571568   0.375000000000000   1.0000000
B2   B   0.444431559654792   0.555568440345164   0.875000000000000   1.0000000
B2   B   0.944169162328851   0.055830837671187   0.375000000000000   1.0000000
B2   B   0.277776334017307   0.722223665982729   0.875000000000000   1.0000000
B2   B   0.111081530558958   0.222207431946138   0.875000000000000   1.0000000
B2   B   0.444431559654792   0.222196452642988   0.875000000000000   1.0000000
B2   B   0.611125708165872   0.722258305327804   0.875000000000000   1.0000000
B2   B   0.944459528237577   0.722239983138428   0.875000000000000   1.0000000
B2   B   0.777792568053826   0.222207431946138   0.875000000000000   1.0000000
B2   B   0.111669528305739   0.722501430819555   0.375000000000000   1.0000000
B2   B   0.444050331892686   0.723714906130177   0.375000000000000   1.0000000
B2   B   0.270359515768013   0.216190485093815   0.375000000000000   1.0000000
B2   B   0.783809514906193   0.729640484232003   0.375000000000000   1.0000000
B2   B   0.612497635992536   0.216190485093815   0.375000000000000   1.0000000
B2   B   0.944169162328851   0.221671657990944   0.375000000000000   1.0000000
B2   B   0.111090464205516   0.388874826774955   0.875000000000000   1.0000000
B2   B   0.277776334017307   0.888886001367943   0.875000000000000   1.0000000
B2   B   0.611125173225079   0.888909535794559   0.875000000000000   1.0000000
B2   B   0.444424419297153   0.388878876315226   0.875000000000000   1.0000000
B2   B   0.944451029236213   0.888909535794559   0.875000000000000   1.0000000
B2   B   0.111199816766592   0.888800183233386   0.375000000000000   1.0000000
B2   B   0.777799263828674   0.388874291834096   0.875000000000000   1.0000000
B2   B   0.444267033133500   0.888800183233386   0.375000000000000   1.0000000
B2   B   0.270359515768013   0.387502364007551   0.375000000000000   1.0000000
B2   B   0.276285093869829   0.555949668107242   0.375000000000000   1.0000000
B2   B   0.624539079384327   0.375460920615782   0.375000000000000   1.0000000
B2   B   0.779031018575371   0.891395370484282   0.375000000000000   1.0000000
B2   B   0.946016260428381   0.388295736824909   0.375000000000000   1.0000000
B2   B   0.111106433998145   0.555546201329691   0.875000000000000   1.0000000
B2   B   0.277760016861597   0.055540471762384   0.875000000000000   1.0000000
B2   B   0.777803547357081   0.555568440345164   0.875000000000000   1.0000000
B2   B   0.611125173225079   0.055548970763857   0.875000000000000   1.0000000
B2   B   0.944439010590409   0.055560989409615   0.875000000000000   1.0000000
B2   B   0.055512914359481   0.111082273923781   0.124980237657546   1.0000000
B2   B   0.555548158107640   0.611231119027482   0.124571226823614   1.0000000
B2   B   0.388817388121361   0.110968109576227   0.125020189976928   1.0000000
B2   B   0.889031890423936   0.611182611878530   0.125020189976928   1.0000000
B2   B   0.722236026230940   0.111082273923781   0.124980237657546   1.0000000
B2   B   0.055618987867855   0.777802502110139   0.625228665709036   1.0000000
B2   B   0.388850180909069   0.777802502110139   0.625228665709036   1.0000000
B2   B   0.222102634216744   0.277717983775055   0.625009468796143   1.0000000
B2   B   0.722282016224937   0.777897365783226   0.625009468796143   1.0000000
B2   B   0.555548158107640   0.277650372413557   0.625428773176323   1.0000000
B2   B   0.888917726076249   0.277763973769016   0.625019762342335   1.0000000
B2   B   0.222222222222221   0.777777777777779   0.124546025161532   1.0000000
B2   B   0.055512914359481   0.277763973769016   0.124980237657546   1.0000000
B2   B   0.388768880972555   0.277650372413557   0.124571226823614   1.0000000
B2   B   0.555534618723457   0.777862519826186   0.125020314907374   1.0000000
B2   B   0.888994567769325   0.777862519826186   0.125020314907374   1.0000000
B2   B   0.722282016224937   0.277717983775055   0.124990531203838   1.0000000
B2   B   0.055565952230614   0.944434047769393   0.625051279740015   1.0000000
B2   B   0.388850180909069   0.944381012132189   0.625228665709036   1.0000000
B2   B   0.222137480173842   0.444465381276548   0.624979685092643   1.0000000
B2   B   0.555555555555557   0.444444444444443   0.626190032872435   1.0000000
B2   B   0.722236026230940   0.944487085640581   0.625019762342335   1.0000000
B2   B   0.888994567769325   0.444465381276548   0.624979685092643   1.0000000
B2   B   0.055565952230614   0.444465237794549   0.124948720260001   1.0000000
B2   B   0.222197497889829   0.944381012132189   0.124771334290911   1.0000000
B2   B   0.555534762205336   0.944434047769393   0.124948720260001   1.0000000
B2   B   0.388768880972555   0.444451841892337   0.124571226823616   1.0000000
B2   B   0.888917726076249   0.944487085640581   0.124980237657546   1.0000000
B2   B   0.722349627586402   0.444451841892337   0.124571226823614   1.0000000
B2   B   0.222197497889829   0.611149819091082   0.625228665709036   1.0000000
B2   B   0.055512914359481   0.111082273923781   0.625019762342335   1.0000000
B2   B   0.555548158107640   0.611231119027482   0.625428773176323   1.0000000
B2   B   0.388817388121361   0.110968109576227   0.624979810023069   1.0000000
B2   B   0.889031890423936   0.611182611878530   0.624979810023069   1.0000000
B2   B   0.055618987867855   0.611149819091082   0.124771334290911   1.0000000
B2   B   0.722236026230940   0.111082273923781   0.625019762342335   1.0000000
B2   B   0.222137480173842   0.111005432230636   0.125020314907374   1.0000000
B2   B   0.388817388121361   0.611182611878530   0.125020189976928   1.0000000
B2   B   0.722349627586402   0.611231119027482   0.124571226823614   1.0000000
B2   B   0.555534618723457   0.111005432230636   0.125020314907374   1.0000000
B2   B   0.388817388121361   0.611182611878530   0.624979810023069   1.0000000
B2   B   0.888888888888886   0.111111111111114   0.124896416595618   1.0000000
B2   B   0.222222222222221   0.777777777777779   0.625453974838433   1.0000000
B2   B   0.055512914359481   0.277763973769016   0.625019762342335   1.0000000
B2   B   0.388768880972555   0.277650372413557   0.625428773176323   1.0000000
B2   B   0.555534618723457   0.777862519826186   0.624979685092643   1.0000000
B2   B   0.888994567769325   0.777862519826186   0.624979685092643   1.0000000
B2   B   0.722282016224937   0.277717983775055   0.625009468796143   1.0000000
B2   B   0.055618987867855   0.777802502110139   0.124771334290911   1.0000000
B2   B   0.388850180909069   0.777802502110139   0.124771334290911   1.0000000
B2   B   0.222102634216744   0.277717983775055   0.124990531203838   1.0000000
B2   B   0.722282016224937   0.777897365783226   0.124990531203838   1.0000000
B2   B   0.555548158107640   0.277650372413557   0.124571226823614   1.0000000
B2   B   0.888917726076249   0.277763973769016   0.124980237657546   1.0000000
B2   B   0.055565952230614   0.444465237794549   0.625051279740015   1.0000000
B2   B   0.222197497889829   0.944381012132189   0.625228665709036   1.0000000
B2   B   0.555534762205336   0.944434047769393   0.625051279740015   1.0000000
B2   B   0.388768880972555   0.444451841892337   0.625428773176323   1.0000000
B2   B   0.888917726076249   0.944487085640581   0.625019762342335   1.0000000
B2   B   0.055565952230614   0.944434047769393   0.124948720260001   1.0000000
B2   B   0.722349627586402   0.444451841892337   0.625428773176323   1.0000000
B2   B   0.388850180909069   0.944381012132189   0.124771334290911   1.0000000
B2   B   0.222137480173842   0.444465381276548   0.125020314907374   1.0000000
B2   B   0.222197497889829   0.611149819091082   0.124771334290911   1.0000000
B2   B   0.555555555555557   0.444444444444443   0.123809967127610   1.0000000
B2   B   0.722236026230940   0.944487085640581   0.124980237657546   1.0000000
B2   B   0.888994567769325   0.444465381276548   0.125020314907374   1.0000000
B2   B   0.055618987867855   0.611149819091082   0.625228665709036   1.0000000
B2   B   0.222137480173842   0.111005432230636   0.624979685092643   1.0000000
B2   B   0.722349627586402   0.611231119027482   0.625428773176323   1.0000000
B2   B   0.555534618723457   0.111005432230636   0.624979685092643   1.0000000
B2   B   0.888888888888886   0.111111111111114   0.625103583404194   1.0000000


