data_1
_audit_creation_method   'vasp2cif'
_cell_length_a    14.93631414619966
_cell_length_b    14.936314146199727
_cell_length_c    13.341276283792837
_cell_angle_alpha    90.0
_cell_angle_beta    90.0
_cell_angle_gamma    119.99999999999984

_symmetry_space_group_name_H-M    'P 1'
loop_
_atom_site_label
_atom_site_type_symbol
_atom_site_fract_x
_atom_site_fract_y
_atom_site_fract_z
_atom_site_occupancy
O2   O   0.434715838855818   0.384024586094574   0.375000000000000   1.0000000
N2   N   0.111097499759529   0.055541108096875   0.125239683944302   1.0000000
N2   N   0.611126896818039   0.555546268265805   0.126891225561542   1.0000000
N2   N   0.444411241445121   0.055554520618236   0.125396252906120   1.0000000
N2   N   0.944477739169002   0.555576994435391   0.125230398930213   1.0000000
N2   N   0.777735777357410   0.055534555345373   0.125167153355626   1.0000000
N2   N   0.111128371879679   0.722230852606505   0.624829692116499   1.0000000
N2   N   0.444411241445121   0.722190054160221   0.624603747093880   1.0000000
N2   N   0.277762435428611   0.222220949258921   0.624102188734965   1.0000000
N2   N   0.777794579337830   0.722211637536850   0.624469878923960   1.0000000
N2   N   0.611089198681986   0.222237629601208   0.624349056172555   1.0000000
N2   N   0.944422772930930   0.222220357604444   0.624867489821201   1.0000000
N2   N   0.277764635592022   0.722213347508107   0.125194498573093   1.0000000
N2   N   0.111094865812493   0.222214099572911   0.125323785909101   1.0000000
N2   N   0.444439623164119   0.222248791020937   0.126212571542369   1.0000000
N2   N   0.611089198681986   0.722184902414106   0.125650943827444   1.0000000
N2   N   0.944477739169002   0.722234078066946   0.125230398930213   1.0000000
N2   N   0.777752178014904   0.222227887017965   0.125198765275527   1.0000000
N2   N   0.111117937494651   0.888887079583511   0.624812385182060   1.0000000
N2   N   0.444403586471105   0.888868459902217   0.624826639074497   1.0000000
N2   N   0.277762435428611   0.388874819503018   0.624102188734965   1.0000000
N2   N   0.611126896818039   0.388913961885562   0.623108774438457   1.0000000
N2   N   0.777752178014904   0.888857624330267   0.624801234724473   1.0000000
N2   N   0.944448462444801   0.388902468652501   0.624864922876583   1.0000000
N2   N   0.111097499759529   0.388889724995984   0.125239683944302   1.0000000
N2   N   0.277764635592022   0.888884621417243   0.125194498573093   1.0000000
N2   N   0.611060204958042   0.888851490038332   0.125207655737194   1.0000000
N2   N   0.444411145879100   0.388872239606215   0.126479580106867   1.0000000
N2   N   0.944448462444801   0.888879327125628   0.125135077123417   1.0000000
N2   N   0.777794579337830   0.388916275134309   0.125530121076039   1.0000000
N2   N   0.277769243504000   0.555545427684857   0.624528534055944   1.0000000
N2   N   0.111097499759529   0.055541108096875   0.624760316055699   1.0000000
N2   N   0.611126896818039   0.555546268265805   0.623108774438457   1.0000000
N2   N   0.444411241445121   0.055554520618236   0.624603747093880   1.0000000
N2   N   0.944477739169002   0.555576994435391   0.624769601069788   1.0000000
N2   N   0.111117937494651   0.555564191244469   0.125187614817940   1.0000000
N2   N   0.777735777357410   0.055534555345373   0.624832846644374   1.0000000
N2   N   0.277769243504000   0.055557149152479   0.125471465944057   1.0000000
N2   N   0.444439623164119   0.555524165476519   0.126212571542369   1.0000000
N2   N   0.777818235096393   0.555575784214865   0.125845263920754   1.0000000
N2   N   0.611060204958042   0.055542048253039   0.125207655737194   1.0000000
N2   N   0.444439623164119   0.555524165476519   0.623787428457630   1.0000000
N2   N   0.944422772930930   0.055535748659823   0.125132510178798   1.0000000
N2   N   0.277764635592022   0.722213347508107   0.624805501426908   1.0000000
N2   N   0.111094865812493   0.222214099572911   0.624676214090899   1.0000000
N2   N   0.444439623164119   0.222248791020937   0.623787428457630   1.0000000
N2   N   0.611089198681986   0.722184902414106   0.624349056172555   1.0000000
N2   N   0.944477739169002   0.722234078066946   0.624769601069788   1.0000000
N2   N   0.777752178014904   0.222227887017965   0.624801234724473   1.0000000
N2   N   0.111128371879679   0.722230852606505   0.125170307883501   1.0000000
N2   N   0.444411241445121   0.722190054160221   0.125396252906120   1.0000000
N2   N   0.277762435428611   0.222220949258921   0.125897811265037   1.0000000
N2   N   0.777794579337830   0.722211637536850   0.125530121076039   1.0000000
N2   N   0.611089198681986   0.222237629601208   0.125650943827444   1.0000000
N2   N   0.944422772930930   0.222220357604444   0.125132510178798   1.0000000
N2   N   0.111097499759529   0.388889724995984   0.624760316055699   1.0000000
N2   N   0.277764635592022   0.888884621417243   0.624805501426908   1.0000000
N2   N   0.611060204958042   0.888851490038332   0.624792344262807   1.0000000
N2   N   0.444411145879100   0.388872239606215   0.623520419893134   1.0000000
N2   N   0.944448462444801   0.888879327125628   0.624864922876583   1.0000000
N2   N   0.111117937494651   0.888887079583511   0.125187614817940   1.0000000
N2   N   0.777794579337830   0.388916275134309   0.624469878923960   1.0000000
N2   N   0.444403586471105   0.888868459902217   0.125173360925504   1.0000000
N2   N   0.277762435428611   0.388874819503018   0.125897811265037   1.0000000
N2   N   0.277769243504000   0.555545427684857   0.125471465944057   1.0000000
N2   N   0.611126896818039   0.388913961885562   0.126891225561542   1.0000000
N2   N   0.777752178014904   0.888857624330267   0.125198765275527   1.0000000
N2   N   0.944448462444801   0.388902468652501   0.125135077123417   1.0000000
N2   N   0.111117937494651   0.555564191244469   0.624812385182060   1.0000000
N2   N   0.277769243504000   0.055557149152479   0.624528534055944   1.0000000
N2   N   0.777818235096393   0.555575784214865   0.624154736079246   1.0000000
N2   N   0.611060204958042   0.055542048253039   0.624792344262807   1.0000000
N2   N   0.944422772930930   0.055535748659823   0.624867489821201   1.0000000
N2   N   0.052728849581704   0.109416852542932   0.375000000000000   1.0000000
N2   N   0.555447944281862   0.604166375202576   0.375000000000000   1.0000000
N2   N   0.389687347778465   0.116117996355178   0.375000000000000   1.0000000
N2   N   0.892968692458591   0.613151012895967   0.375000000000000   1.0000000
N2   N   0.721024379016821   0.111126354309660   0.375000000000000   1.0000000
N2   N   0.055547580376495   0.777776538772436   0.875000000000000   1.0000000
N2   N   0.388896976425166   0.777779664142491   0.875000000000000   1.0000000
N2   N   0.222218941230403   0.277776137281869   0.875000000000000   1.0000000
N2   N   0.722219122034338   0.777778496236582   0.875000000000000   1.0000000
N2   N   0.555554539953122   0.277780113657864   0.875000000000000   1.0000000
N2   N   0.888887457271356   0.277775562754866   0.875000000000000   1.0000000
N2   N   0.224350709585456   0.778842021459395   0.375000000000000   1.0000000
N2   N   0.052728849581704   0.276645330372108   0.375000000000000   1.0000000
N2   N   0.382713232027880   0.279268087194687   0.375000000000000   1.0000000
N2   N   0.555458144199951   0.774984833685523   0.375000000000000   1.0000000
N2   N   0.890733098796986   0.778600828417560   0.375000000000000   1.0000000
N2   N   0.721878227646615   0.279176699266181   0.375000000000000   1.0000000
N2   N   0.055551566924263   0.944447107372281   0.875000000000000   1.0000000
N2   N   0.388896976425166   0.944450645616011   0.875000000000000   1.0000000
N2   N   0.222220582736344   0.444438329506058   0.875000000000000   1.0000000
N2   N   0.555551364833456   0.444442349083392   0.875000000000000   1.0000000
N2   N   0.722222705447588   0.944445982490978   0.875000000000000   1.0000000
N2   N   0.888882092304868   0.444436798776410   0.875000000000000   1.0000000
N2   N   0.055734312831773   0.444346971329923   0.375000000000000   1.0000000
N2   N   0.223833279200323   0.946458978219501   0.375000000000000   1.0000000
N2   N   0.555454708537205   0.944394020935267   0.375000000000000   1.0000000
N2   N   0.382713232027880   0.436778478166528   0.375000000000000   1.0000000
N2   N   0.887544203378230   0.943248062501240   0.375000000000000   1.0000000
N2   N   0.726692384222320   0.447940652125147   0.375000000000000   1.0000000
N2   N   0.222221556742775   0.611105023335078   0.875000000000000   1.0000000
N2   N   0.055550713527114   0.111110456780586   0.875000000000000   1.0000000
N2   N   0.555554539953122   0.611107759628593   0.875000000000000   1.0000000
N2   N   0.388894097567189   0.111119256296611   0.875000000000000   1.0000000
N2   N   0.888876462426277   0.611104897879811   0.875000000000000   1.0000000
N2   N   0.058093980806036   0.612070502608352   0.375000000000000   1.0000000
N2   N   0.722222705447588   0.111110056289944   0.875000000000000   1.0000000
N2   N   0.220869922943255   0.111278070005977   0.375000000000000   1.0000000
N2   N   0.389687347778465   0.606902684756630   0.375000000000000   1.0000000
N2   N   0.726692384222320   0.612085065430510   0.375000000000000   1.0000000
N2   N   0.555458144199951   0.113806643847763   0.375000000000000   1.0000000
N2   N   0.388894097567189   0.611108174603921   0.875000000000000   1.0000000
N2   N   0.886785343897579   0.110059338615461   0.375000000000000   1.0000000
N2   N   0.222223802259888   0.777778567796612   0.875000000000000   1.0000000
N2   N   0.055550713527114   0.277773590079864   0.875000000000000   1.0000000
N2   N   0.388890157275850   0.277780484830921   0.875000000000000   1.0000000
N2   N   0.555559703103826   0.777779363015741   0.875000000000000   1.0000000
N2   N   0.888882092304868   0.777778626861791   0.875000000000000   1.0000000
N2   N   0.722219122034338   0.277773959131094   0.875000000000000   1.0000000
N2   N   0.058093980806036   0.779356811531018   0.375000000000000   1.0000000
N2   N   0.390085123826246   0.776941710019238   0.375000000000000   1.0000000
N2   N   0.216591249928771   0.274962291631054   0.375000000000000   1.0000000
N2   N   0.721878227646615   0.776034861713766   0.375000000000000   1.0000000
N2   N   0.555447944281862   0.284614902412623   0.375000000000000   1.0000000
N2   N   0.887544203378230   0.277629474210324   0.375000000000000   1.0000000
N2   N   0.055551566924263   0.444437792885311   0.875000000000000   1.0000000
N2   N   0.222221556742775   0.944449866741035   0.875000000000000   1.0000000
N2   N   0.555560262862214   0.944446798097771   0.875000000000000   1.0000000
N2   N   0.388890157275850   0.444443005778264   0.875000000000000   1.0000000
N2   N   0.888887457271356   0.944445227849824   0.875000000000000   1.0000000
N2   N   0.055734312831773   0.944720674835178   0.375000000000000   1.0000000
N2   N   0.722210981911475   0.444437699745606   0.875000000000000   1.0000000
N2   N   0.390085123826246   0.946476747140345   0.375000000000000   1.0000000
N2   N   0.220869922943255   0.442925186270614   0.375000000000000   1.0000000
N2   N   0.223833279200323   0.610707634314159   0.375000000000000   1.0000000
N2   N   0.721024379016821   0.943231358040498   0.375000000000000   1.0000000
N2   N   0.890733098796986   0.445465603712761   0.375000000000000   1.0000000
N2   N   0.055547580376495   0.611104374937394   0.875000000000000   1.0000000
N2   N   0.222220582736344   0.111115586563622   0.875000000000000   1.0000000
N2   N   0.722210981911475   0.611106615499203   0.875000000000000   1.0000000
N2   N   0.555559703103826   0.111113673421422   0.875000000000000   1.0000000
N2   N   0.888888243005093   0.111110788169218   0.875000000000000   1.0000000
B2   B   0.109031613339057   0.054813067426989   0.375000000000000   1.0000000
B2   B   0.620859462737723   0.562566356850946   0.375000000000000   1.0000000
B2   B   0.444699328391968   0.057782441172044   0.375000000000000   1.0000000
B2   B   0.947817144431817   0.556726028950480   0.375000000000000   1.0000000
B2   B   0.775983701357723   0.054658517345529   0.375000000000000   1.0000000
B2   B   0.111114685780355   0.722224009556843   0.875000000000000   1.0000000
B2   B   0.444449055231716   0.722264722851786   0.875000000000000   1.0000000
B2   B   0.277718333190273   0.222174993913259   0.875000000000000   1.0000000
B2   B   0.777814335328441   0.722280095259193   0.875000000000000   1.0000000
B2   B   0.611138101546345   0.222180423898998   0.875000000000000   1.0000000
B2   B   0.944417060451232   0.222201366663977   0.875000000000000   1.0000000
B2   B   0.279091842910357   0.722306051885885   0.375000000000000   1.0000000
B2   B   0.105038997104510   0.219186165218919   0.375000000000000   1.0000000
B2   B   0.444863790266218   0.226270645744132   0.375000000000000   1.0000000
B2   B   0.611536085466565   0.720484314649470   0.375000000000000   1.0000000
B2   B   0.947817144431817   0.724424448814672   0.375000000000000   1.0000000
B2   B   0.776827716929450   0.222018636903823   0.375000000000000   1.0000000
B2   B   0.111098958100431   0.888879562089593   0.875000000000000   1.0000000
B2   B   0.444455593821980   0.888894463577655   0.875000000000000   1.0000000
B2   B   0.277718333190273   0.388876672610342   0.875000000000000   1.0000000
B2   B   0.611140858921322   0.388873015387854   0.875000000000000   1.0000000
B2   B   0.777796389741909   0.888933294037612   0.875000000000000   1.0000000
B2   B   0.944445599175054   0.388870223592024   0.875000000000000   1.0000000
B2   B   0.109031613339057   0.387551879245397   0.375000000000000   1.0000000
B2   B   0.279091842910357   0.890119124357801   0.375000000000000   1.0000000
B2   B   0.610440265877102   0.887764361560957   0.375000000000000   1.0000000
B2   B   0.944877959630886   0.889560142761757   0.375000000000000   1.0000000
B2   B   0.781102971055278   0.389555288324682   0.375000000000000   1.0000000
B2   B   0.277748806615962   0.555570322035968   0.875000000000000   1.0000000
B2   B   0.111064022692743   0.055526454812869   0.875000000000000   1.0000000
B2   B   0.611140858921322   0.555601176866795   0.875000000000000   1.0000000
B2   B   0.444449055231716   0.055517665713267   0.875000000000000   1.0000000
B2   B   0.944466055326739   0.555554611520393   0.875000000000000   1.0000000
B2   B   0.112523209010132   0.555597906050823   0.375000000000000   1.0000000
B2   B   0.777783652191336   0.055558492762335   0.875000000000000   1.0000000
B2   B   0.277689728325923   0.056878218841165   0.375000000000000   1.0000000
B2   B   0.444863790266218   0.551926477855420   0.375000000000000   1.0000000
B2   B   0.784498889063697   0.558916111198517   0.375000000000000   1.0000000
B2   B   0.610440265877102   0.056009237649473   0.375000000000000   1.0000000
B2   B   0.444435003019503   0.555595670137085   0.875000000000000   1.0000000
B2   B   0.941640395036072   0.054001127972797   0.375000000000000   1.0000000
B2   B   0.277776042051734   0.722233082285778   0.875000000000000   1.0000000
B2   B   0.111042649589842   0.222187991461585   0.875000000000000   1.0000000
B2   B   0.444435003019503   0.222172666215753   0.875000000000000   1.0000000
B2   B   0.611138101546345   0.722291010980674   0.875000000000000   1.0000000
B2   B   0.944466055326739   0.722244777139682   0.875000000000000   1.0000000
B2   B   0.777796389741909   0.222196429037623   0.875000000000000   1.0000000
B2   B   0.113454256271144   0.723393794802235   0.375000000000000   1.0000000
B2   B   0.444699328391968   0.720250220553261   0.375000000000000   1.0000000
B2   B   0.270157983931027   0.219928697241114   0.375000000000000   1.0000000
B2   B   0.781102971055278   0.724881016063926   0.375000000000000   1.0000000
B2   B   0.611536085466565   0.224385104150424   0.375000000000000   1.0000000
B2   B   0.941640395036072   0.220972600396612   0.375000000000000   1.0000000
B2   B   0.111064022692743   0.388870901213202   0.875000000000000   1.0000000
B2   B   0.277776042051734   0.888876293099285   0.875000000000000   1.0000000
B2   B   0.611132183301609   0.888924936275143   0.875000000000000   1.0000000
B2   B   0.444422684258387   0.388878008795858   0.875000000000000   1.0000000
B2   B   0.944445599175054   0.888908708916357   0.875000000000000   1.0000000
B2   B   0.112523209010132   0.890258636292637   0.375000000000000   1.0000000
B2   B   0.777814335328441   0.388867573402578   0.875000000000000   1.0000000
B2   B   0.444774938465305   0.889054135899317   0.375000000000000   1.0000000
B2   B   0.270157983931027   0.383562620023241   0.375000000000000   1.0000000
B2   B   0.277689728325923   0.554144842818094   0.375000000000000   1.0000000
B2   B   0.620859462737723   0.391626439220104   0.375000000000000   1.0000000
B2   B   0.776827716929450   0.888142413358954   0.375000000000000   1.0000000
B2   B   0.944877959630886   0.388651150202458   0.375000000000000   1.0000000
B2   B   0.111098958100431   0.555552729344165   0.875000000000000   1.0000000
B2   B   0.277748806615962   0.055511817913331   0.875000000000000   1.0000000
B2   B   0.777821310880792   0.555577322107063   0.875000000000000   1.0000000
B2   B   0.611132183301609   0.055540580359796   0.875000000000000   1.0000000
B2   B   0.944417060451232   0.055549027120592   0.875000000000000   1.0000000
B2   B   0.055425292971041   0.110993405677440   0.124683650937257   1.0000000
B2   B   0.555598282631589   0.611284887410025   0.125242579777746   1.0000000
B2   B   0.388782640178586   0.110881992786652   0.124936797252014   1.0000000
B2   B   0.889134126769682   0.611233730051511   0.124776883935299   1.0000000
B2   B   0.722198610410443   0.111069365141938   0.124741908274455   1.0000000
B2   B   0.055642368058791   0.777793892967547   0.625259328774521   1.0000000
B2   B   0.388806124427386   0.777810182108871   0.625226625528888   1.0000000
B2   B   0.222004771940303   0.277669052636820   0.625252375883830   1.0000000
B2   B   0.722314488120816   0.777904594123241   0.625182328361973   1.0000000
B2   B   0.555598282631589   0.277646728554899   0.624757420222255   1.0000000
B2   B   0.888895066621106   0.277783471012216   0.625304583474901   1.0000000
B2   B   0.222200512512362   0.777766922922849   0.124762839449976   1.0000000
B2   B   0.055425292971041   0.277765220626937   0.124683650937257   1.0000000
B2   B   0.388782065390848   0.277659238248046   0.124993084043597   1.0000000
B2   B   0.555515858150908   0.777875564750452   0.124812692042563   1.0000000
B2   B   0.889043043627772   0.777863207907720   0.124724222659269   1.0000000
B2   B   0.722314488120816   0.277743227330912   0.124817671638028   1.0000000
B2   B   0.055531078861895   0.944364436923251   0.625293014969415   1.0000000
B2   B   0.388806124427386   0.944329275651851   0.625226625528888   1.0000000
B2   B   0.222052647811347   0.444494969154663   0.625167720458383   1.0000000
B2   B   0.555565403302516   0.444449368317922   0.624275764296971   1.0000000
B2   B   0.722198610410443   0.944462578601840   0.625258091725544   1.0000000
B2   B   0.889043043627772   0.444513169053387   0.625275777340732   1.0000000
B2   B   0.055531078861895   0.444499975271973   0.124706985030585   1.0000000
B2   B   0.222152959123728   0.944296529653063   0.124785730040887   1.0000000
B2   B   0.555486843656275   0.944410088494803   0.124738217716782   1.0000000
B2   B   0.388782065390848   0.444456160476137   0.124993084043597   1.0000000
B2   B   0.888895066621106   0.944444928942228   0.124695416525100   1.0000000
B2   B   0.722467044018092   0.444525247375015   0.125156224456635   1.0000000
B2   B   0.222152959123728   0.611189762804001   0.625214269959113   1.0000000
B2   B   0.055425292971041   0.110993405677440   0.625316349062743   1.0000000
B2   B   0.555598282631589   0.611284887410025   0.624757420222255   1.0000000
B2   B   0.388782640178586   0.110881992786652   0.625063202747986   1.0000000
B2   B   0.889134126769682   0.611233730051511   0.625223116064703   1.0000000
B2   B   0.055642368058791   0.611181808424580   0.124740671225479   1.0000000
B2   B   0.722198610410443   0.111069365141938   0.625258091725544   1.0000000
B2   B   0.222052647811347   0.110891011990019   0.124832279541618   1.0000000
B2   B   0.388782640178586   0.611233980725277   0.124936797252014   1.0000000
B2   B   0.722467044018092   0.611275129976410   0.125156224456635   1.0000000
B2   B   0.555515858150908   0.110973626733792   0.124812692042563   1.0000000
B2   B   0.388782640178586   0.611233980725277   0.625063202747986   1.0000000
B2   B   0.888831087741298   0.111082210537320   0.124718249372785   1.0000000
B2   B   0.222200512512362   0.777766922922849   0.625237160550024   1.0000000
B2   B   0.055425292971041   0.277765220626937   0.625316349062743   1.0000000
B2   B   0.388782065390848   0.277659238248046   0.625006915956403   1.0000000
B2   B   0.555515858150908   0.777875564750452   0.625187307957436   1.0000000
B2   B   0.889043043627772   0.777863207907720   0.625275777340732   1.0000000
B2   B   0.722314488120816   0.277743227330912   0.625182328361973   1.0000000
B2   B   0.055642368058791   0.777793892967547   0.124740671225479   1.0000000
B2   B   0.388806124427386   0.777810182108871   0.124773374471113   1.0000000
B2   B   0.222004771940303   0.277669052636820   0.124747624116169   1.0000000
B2   B   0.722314488120816   0.777904594123241   0.124817671638028   1.0000000
B2   B   0.555598282631589   0.277646728554899   0.125242579777746   1.0000000
B2   B   0.888895066621106   0.277783471012216   0.124695416525100   1.0000000
B2   B   0.055531078861895   0.444499975271973   0.625293014969415   1.0000000
B2   B   0.222152959123728   0.944296529653063   0.625214269959113   1.0000000
B2   B   0.555486843656275   0.944410088494803   0.625261782283218   1.0000000
B2   B   0.388782065390848   0.444456160476137   0.625006915956403   1.0000000
B2   B   0.888895066621106   0.944444928942228   0.625304583474901   1.0000000
B2   B   0.055531078861895   0.944364436923251   0.124706985030585   1.0000000
B2   B   0.722467044018092   0.444525247375015   0.624843775543365   1.0000000
B2   B   0.388806124427386   0.944329275651851   0.124773374471113   1.0000000
B2   B   0.222052647811347   0.444494969154663   0.124832279541618   1.0000000
B2   B   0.222152959123728   0.611189762804001   0.124785730040887   1.0000000
B2   B   0.555565403302516   0.444449368317922   0.125724235703029   1.0000000
B2   B   0.722198610410443   0.944462578601840   0.124741908274455   1.0000000
B2   B   0.889043043627772   0.444513169053387   0.124724222659269   1.0000000
B2   B   0.055642368058791   0.611181808424580   0.625259328774521   1.0000000
B2   B   0.222052647811347   0.110891011990019   0.625167720458383   1.0000000
B2   B   0.722467044018092   0.611275129976410   0.624843775543365   1.0000000
B2   B   0.555515858150908   0.110973626733792   0.625187307957436   1.0000000
B2   B   0.888831087741298   0.111082210537320   0.625281750627215   1.0000000


