data_1
_audit_creation_method   'vasp2cif'
_cell_length_a    14.93631414619966
_cell_length_b    14.936314146199727
_cell_length_c    13.341276283792837
_cell_angle_alpha    90.0
_cell_angle_beta    90.0
_cell_angle_gamma    119.99999999999984

_symmetry_space_group_name_H-M    'P 1'
loop_
_atom_site_label
_atom_site_type_symbol
_atom_site_fract_x
_atom_site_fract_y
_atom_site_fract_z
_atom_site_occupancy
Al2   Al   0.421483742434523   0.377408537883913   0.375000000000000   1.0000000
Al2   Al   0.581807851459270   0.457570592396299   0.375000000000000   1.0000000
N2   N   0.111062316989731   0.055508182103761   0.125018106101441   1.0000000
N2   N   0.611123207741916   0.555628867216449   0.123737393309844   1.0000000
N2   N   0.444454372901568   0.055537270962342   0.125030380422299   1.0000000
N2   N   0.944405243221382   0.555543347503538   0.125197549151351   1.0000000
N2   N   0.777804121142722   0.055568727238037   0.124972053498502   1.0000000
N2   N   0.111088758631941   0.722211045982647   0.625035243116827   1.0000000
N2   N   0.444454372901568   0.722250435272593   0.624969619577702   1.0000000
N2   N   0.277676773765657   0.222146374532711   0.624998569256741   1.0000000
N2   N   0.777765053499918   0.722244253931336   0.624947590479948   1.0000000
N2   N   0.611116565843542   0.222192761351865   0.624929750458622   1.0000000
N2   N   0.944438701483665   0.222221546028158   0.625015966090210   1.0000000
N2   N   0.277774527722195   0.722230067022580   0.124962660228014   1.0000000
N2   N   0.111056673206719   0.222195003270030   0.124945743681842   1.0000000
N2   N   0.444432713490127   0.222171950798332   0.124817511787881   1.0000000
N2   N   0.611116565843542   0.722257137824989   0.125070249541401   1.0000000
N2   N   0.944405243221382   0.722195229051289   0.125197549151351   1.0000000
N2   N   0.777793762086780   0.222208347718251   0.125061365418030   1.0000000
N2   N   0.111086286460084   0.888860417674199   0.625003603510311   1.0000000
N2   N   0.444460920095188   0.888897126714225   0.625051856629781   1.0000000
N2   N   0.277676773765657   0.388863732566255   0.624998569256741   1.0000000
N2   N   0.611123207741916   0.388827673858771   0.626262606690144   1.0000000
N2   N   0.777793762086780   0.888918747701805   0.624938634581963   1.0000000
N2   N   0.944425104054259   0.388884781305793   0.624956786635185   1.0000000
N2   N   0.111062316989731   0.388887468219273   0.125018106101441   1.0000000
N2   N   0.277774527722195   0.888877794032980   0.124962660228014   1.0000000
N2   N   0.611136943907244   0.888917152298527   0.124987008463741   1.0000000
N2   N   0.444123648359706   0.388728490846513   0.124548419127487   1.0000000
N2   N   0.944425104054259   0.888873656081858   0.125043213364833   1.0000000
N2   N   0.777765053499918   0.388854132901804   0.125052409520054   1.0000000
N2   N   0.277758106066619   0.555566824273187   0.624893241190106   1.0000000
N2   N   0.111062316989731   0.055508182103761   0.624981893898558   1.0000000
N2   N   0.611123207741916   0.555628867216449   0.626262606690144   1.0000000
N2   N   0.444454372901568   0.055537270962342   0.624969619577702   1.0000000
N2   N   0.944405243221382   0.555543347503538   0.624802450848668   1.0000000
N2   N   0.111086286460084   0.555559202119282   0.124996396489711   1.0000000
N2   N   0.777804121142722   0.055568727238037   0.625027946501481   1.0000000
N2   N   0.277758106066619   0.055524615126757   0.125106758809954   1.0000000
N2   N   0.444432713490127   0.555594096025109   0.124817511787881   1.0000000
N2   N   0.777710630981415   0.555521982157330   0.125332390616149   1.0000000
N2   N   0.611136943907244   0.055553124942030   0.124987008463741   1.0000000
N2   N   0.444432713490127   0.555594096025109   0.625182488212109   1.0000000
N2   N   0.944438701483665   0.055550488788866   0.124984033909777   1.0000000
N2   N   0.277774527722195   0.722230067022580   0.625037339772013   1.0000000
N2   N   0.111056673206719   0.222195003270030   0.625054256318137   1.0000000
N2   N   0.444432713490127   0.222171950798332   0.625182488212109   1.0000000
N2   N   0.611116565843542   0.722257137824989   0.624929750458622   1.0000000
N2   N   0.944405243221382   0.722195229051289   0.624802450848668   1.0000000
N2   N   0.777793762086780   0.222208347718251   0.624938634581963   1.0000000
N2   N   0.111088758631941   0.722211045982647   0.124964756883196   1.0000000
N2   N   0.444454372901568   0.722250435272593   0.125030380422299   1.0000000
N2   N   0.277676773765657   0.222146374532711   0.125001430743271   1.0000000
N2   N   0.777765053499918   0.722244253931336   0.125052409520054   1.0000000
N2   N   0.611116565843542   0.222192761351865   0.125070249541401   1.0000000
N2   N   0.944438701483665   0.222221546028158   0.124984033909777   1.0000000
N2   N   0.111062316989731   0.388887468219273   0.624981893898558   1.0000000
N2   N   0.277774527722195   0.888877794032980   0.625037339772013   1.0000000
N2   N   0.611136943907244   0.888917152298527   0.625012991536256   1.0000000
N2   N   0.444123648359706   0.388728490846513   0.625451580872523   1.0000000
N2   N   0.944425104054259   0.888873656081858   0.624956786635185   1.0000000
N2   N   0.111086286460084   0.888860417674199   0.124996396489711   1.0000000
N2   N   0.777765053499918   0.388854132901804   0.624947590479948   1.0000000
N2   N   0.444460920095188   0.888897126714225   0.124948143370242   1.0000000
N2   N   0.277676773765657   0.388863732566255   0.125001430743271   1.0000000
N2   N   0.277758106066619   0.555566824273187   0.125106758809954   1.0000000
N2   N   0.611123207741916   0.388827673858771   0.123737393309844   1.0000000
N2   N   0.777793762086780   0.888918747701805   0.125061365418030   1.0000000
N2   N   0.944425104054259   0.388884781305793   0.125043213364833   1.0000000
N2   N   0.111086286460084   0.555559202119282   0.625003603510311   1.0000000
N2   N   0.277758106066619   0.055524615126757   0.624893241190106   1.0000000
N2   N   0.777710630981415   0.555521982157330   0.624667609383899   1.0000000
N2   N   0.611136943907244   0.055553124942030   0.625012991536256   1.0000000
N2   N   0.944438701483665   0.055550488788866   0.625015966090210   1.0000000
N2   N   0.057430606009762   0.112205692338265   0.375000000000000   1.0000000
N2   N   0.554602468770956   0.629466973041850   0.375000000000000   1.0000000
N2   N   0.385828662157867   0.099201917908394   0.375000000000000   1.0000000
N2   N   0.888059948848417   0.610696641090883   0.375000000000000   1.0000000
N2   N   0.724375076256848   0.110237504193857   0.375000000000000   1.0000000
N2   N   0.055568398664163   0.777783340941506   0.875000000000000   1.0000000
N2   N   0.388893319465655   0.777784697142034   0.875000000000000   1.0000000
N2   N   0.222224676077500   0.277779004705402   0.875000000000000   1.0000000
N2   N   0.722230640123363   0.777780028013654   0.875000000000000   1.0000000
N2   N   0.555554274020931   0.277770391688789   0.875000000000000   1.0000000
N2   N   0.888899954662748   0.277786231236362   0.875000000000000   1.0000000
N2   N   0.219259631704035   0.776296482518662   0.375000000000000   1.0000000
N2   N   0.057430606009762   0.278558247004804   0.375000000000000   1.0000000
N2   N   0.378712635677851   0.250923224363063   0.375000000000000   1.0000000
N2   N   0.555349629065809   0.786166950937014   0.375000000000000   1.0000000
N2   N   0.891750884137255   0.781386223943735   0.375000000000000   1.0000000
N2   N   0.724918279543566   0.273914147163679   0.375000000000000   1.0000000
N2   N   0.055563585950244   0.944445133595733   0.875000000000000   1.0000000
N2   N   0.388893319465655   0.944441955656963   0.875000000000000   1.0000000
N2   N   0.222224150531084   0.444450701753936   0.875000000000000   1.0000000
N2   N   0.555556299046886   0.444444816190107   0.875000000000000   1.0000000
N2   N   0.722228026610263   0.944447009033970   0.875000000000000   1.0000000
N2   N   0.888905976743913   0.444455205458783   0.875000000000000   1.0000000
N2   N   0.054586221927357   0.445007850157400   0.375000000000000   1.0000000
N2   N   0.219172283030292   0.939780811579801   0.375000000000000   1.0000000
N2   N   0.555395395396803   0.944364364365065   0.375000000000000   1.0000000
N2   N   0.378712635677851   0.461122744648142   0.375000000000000   1.0000000
N2   N   0.891314384220201   0.947304327035345   0.375000000000000   1.0000000
N2   N   0.728953414042718   0.440739875072087   0.375000000000000   1.0000000
N2   N   0.222226326074027   0.611118102071846   0.875000000000000   1.0000000
N2   N   0.055560476581331   0.111110976836690   0.875000000000000   1.0000000
N2   N   0.555554274020931   0.611117215665433   0.875000000000000   1.0000000
N2   N   0.388889142292230   0.111101854257133   0.875000000000000   1.0000000
N2   N   0.888909530978406   0.611121432155859   0.875000000000000   1.0000000
N2   N   0.053566599036499   0.610692589169452   0.375000000000000   1.0000000
N2   N   0.722228026610263   0.111114350909578   0.875000000000000   1.0000000
N2   N   0.216898637611557   0.102717724567763   0.375000000000000   1.0000000
N2   N   0.385828662157867   0.619960077582853   0.375000000000000   1.0000000
N2   N   0.728953414042718   0.621546872303933   0.375000000000000   1.0000000
N2   N   0.555349629065821   0.102516011462110   0.375000000000000   1.0000000
N2   N   0.388889142292230   0.611120621368409   0.875000000000000   1.0000000
N2   N   0.891437621411848   0.112385477372596   0.375000000000000   1.0000000
N2   N   0.222229850115214   0.777781591724326   0.875000000000000   1.0000000
N2   N   0.055560476581331   0.277782833078001   0.875000000000000   1.0000000
N2   N   0.388890375060749   0.277771331284857   0.875000000000000   1.0000000
N2   N   0.555557849882910   0.777782320564926   0.875000000000000   1.0000000
N2   N   0.888905976743905   0.777784104618508   0.875000000000000   1.0000000
N2   N   0.722230640123363   0.277783945443118   0.875000000000000   1.0000000
N2   N   0.053566599036499   0.776207343200298   0.375000000000000   1.0000000
N2   N   0.386439007392238   0.779867129572487   0.375000000000000   1.0000000
N2   N   0.225378999030727   0.279356166182016   0.375000000000000   1.0000000
N2   N   0.724918279543566   0.784337465713238   0.375000000000000   1.0000000
N2   N   0.554602468770956   0.258468829062555   0.375000000000000   1.0000000
N2   N   0.891314384220201   0.277343390518238   0.375000000000000   1.0000000
N2   N   0.055563585950244   0.444451785687782   0.875000000000000   1.0000000
N2   N   0.222226326074027   0.944441557335500   0.875000000000000   1.0000000
N2   N   0.555558545868916   0.944445939601074   0.875000000000000   1.0000000
N2   N   0.388890375060749   0.444452377109226   0.875000000000000   1.0000000
N2   N   0.888899954662748   0.944447056759757   0.875000000000000   1.0000000
N2   N   0.054586221927361   0.942911705103289   0.375000000000000   1.0000000
N2   N   0.722240708028046   0.444455773591163   0.875000000000000   1.0000000
N2   N   0.386439007392238   0.939905211153149   0.375000000000000   1.0000000
N2   N   0.216898637611557   0.447514246377106   0.375000000000000   1.0000000
N2   N   0.219172283030292   0.612724804783768   0.375000000000000   1.0000000
N2   N   0.724375076256848   0.947470905396401   0.375000000000000   1.0000000
N2   N   0.891750884137255   0.443697993526818   0.375000000000000   1.0000000
N2   N   0.055568398664163   0.611118391055999   0.875000000000000   1.0000000
N2   N   0.222224150531084   0.111106782110465   0.875000000000000   1.0000000
N2   N   0.722240708028046   0.611118267770156   0.875000000000000   1.0000000
N2   N   0.555557849882910   0.111108862651342   0.875000000000000   1.0000000
N2   N   0.888896971746093   0.111115152539697   0.875000000000000   1.0000000
B2   B   0.108455214846036   0.052320822659236   0.375000000000000   1.0000000
B2   B   0.619966454420841   0.589575909651370   0.375000000000000   1.0000000
B2   B   0.443866087714710   0.048372514282384   0.375000000000000   1.0000000
B2   B   0.943527588528786   0.554618537714601   0.375000000000000   1.0000000
B2   B   0.780840564238729   0.057086948786019   0.375000000000000   1.0000000
B2   B   0.111123534851105   0.722228434092204   0.875000000000000   1.0000000
B2   B   0.444452040499142   0.722225666426220   0.875000000000000   1.0000000
B2   B   0.277795801777579   0.222228891243552   0.875000000000000   1.0000000
B2   B   0.777773210552973   0.722211309125688   0.875000000000000   1.0000000
B2   B   0.611107073381893   0.222229525731237   0.875000000000000   1.0000000
B2   B   0.944446247798378   0.222224066285335   0.875000000000000   1.0000000
B2   B   0.275581397822344   0.722913036995400   0.375000000000000   1.0000000
B2   B   0.113752848387325   0.223543090860335   0.375000000000000   1.0000000
B2   B   0.442489089598609   0.207362400923502   0.375000000000000   1.0000000
B2   B   0.613394879056197   0.736254639154006   0.375000000000000   1.0000000
B2   B   0.943527588528786   0.722242384147474   0.375000000000000   1.0000000
B2   B   0.780859640063075   0.220419247744033   0.375000000000000   1.0000000
B2   B   0.111122212596750   0.888895214236667   0.875000000000000   1.0000000
B2   B   0.444453836366799   0.888893584849997   0.875000000000000   1.0000000
B2   B   0.277795801777579   0.388900243867318   0.875000000000000   1.0000000
B2   B   0.611098482081944   0.388896490142822   0.875000000000000   1.0000000
B2   B   0.777775706050401   0.888882641197973   0.875000000000000   1.0000000
B2   B   0.944448884102920   0.388892053950091   0.875000000000000   1.0000000
B2   B   0.108455214846036   0.389467725520121   0.375000000000000   1.0000000
B2   B   0.275581397822344   0.886001694160319   0.375000000000000   1.0000000
B2   B   0.613275431243486   0.893960166735389   0.375000000000000   1.0000000
B2   B   0.945561074759397   0.890888390142814   0.375000000000000   1.0000000
B2   B   0.783078447587036   0.385654689529240   0.375000000000000   1.0000000
B2   B   0.277789766917056   0.555564096501444   0.875000000000000   1.0000000
B2   B   0.111119365946537   0.055558946280403   0.875000000000000   1.0000000
B2   B   0.611098482081944   0.555535325272485   0.875000000000000   1.0000000
B2   B   0.444452040499142   0.055559707406276   0.875000000000000   1.0000000
B2   B   0.944452501110875   0.555559526443682   0.875000000000000   1.0000000
B2   B   0.108973592543762   0.555772969629833   0.375000000000000   1.0000000
B2   B   0.777776287682919   0.055554810508122   0.875000000000000   1.0000000
B2   B   0.274938685402857   0.049195161666349   0.375000000000000   1.0000000
B2   B   0.442489089598609   0.568460022008415   0.375000000000000   1.0000000
B2   B   0.778179208348092   0.555756270840705   0.375000000000000   1.0000000
B2   B   0.613275431243486   0.052648597841317   0.375000000000000   1.0000000
B2   B   0.444457290267143   0.555562328727344   0.875000000000000   1.0000000
B2   B   0.946997425128547   0.057676830187546   0.375000000000000   1.0000000
B2   B   0.277789981081634   0.722228419709308   0.875000000000000   1.0000000
B2   B   0.111118407868111   0.222225870600739   0.875000000000000   1.0000000
B2   B   0.444457290267143   0.222228294873132   0.875000000000000   1.0000000
B2   B   0.611107073381893   0.722210880983954   0.875000000000000   1.0000000
B2   B   0.944452501110875   0.722226308000566   0.875000000000000   1.0000000
B2   B   0.777775706050401   0.222226398185739   0.875000000000000   1.0000000
B2   B   0.108881640719662   0.721107487026520   0.375000000000000   1.0000000
B2   B   0.443866087714710   0.728826906765689   0.375000000000000   1.0000000
B2   B   0.272294504140072   0.211420965781052   0.375000000000000   1.0000000
B2   B   0.783078447587036   0.730757091391172   0.375000000000000   1.0000000
B2   B   0.613394879056197   0.210473573235469   0.375000000000000   1.0000000
B2   B   0.946997425128547   0.222653928274349   0.375000000000000   1.0000000
B2   B   0.111119365946537   0.388893752999441   0.875000000000000   1.0000000
B2   B   0.277789981081634   0.888894894705618   0.875000000000000   1.0000000
B2   B   0.611112407107835   0.888887493797976   0.875000000000000   1.0000000
B2   B   0.444474531721100   0.388903932527222   0.875000000000000   1.0000000
B2   B   0.944448884102920   0.888890163486169   0.875000000000000   1.0000000
B2   B   0.108973592543762   0.886533956247331   0.375000000000000   1.0000000
B2   B   0.777773210552973   0.388895234760590   0.875000000000000   1.0000000
B2   B   0.444067298228644   0.888700315780988   0.375000000000000   1.0000000
B2   B   0.272294504140072   0.394206871692352   0.375000000000000   1.0000000
B2   B   0.274938685402857   0.559076857069889   0.375000000000000   1.0000000
B2   B   0.619966454420841   0.363723878102817   0.375000000000000   1.0000000
B2   B   0.780859640063075   0.893773725652393   0.375000000000000   1.0000000
B2   B   0.945561074759397   0.388006017949902   0.375000000000000   1.0000000
B2   B   0.111122212596750   0.555560331693375   0.875000000000000   1.0000000
B2   B   0.277789766917056   0.055559003748955   0.875000000000000   1.0000000
B2   B   0.777770751288208   0.555552042310779   0.875000000000000   1.0000000
B2   B   0.611112407107835   0.055558246643154   0.875000000000000   1.0000000
B2   B   0.944446247798378   0.055555514846361   0.875000000000000   1.0000000
B2   B   0.055519276318573   0.111081729463062   0.124969386542840   1.0000000
B2   B   0.555565918739121   0.611101700473625   0.124660636549951   1.0000000
B2   B   0.388911599963250   0.111113642768170   0.125030264295593   1.0000000
B2   B   0.888812739147783   0.611073036240506   0.125199416643023   1.0000000
B2   B   0.722234834191205   0.111105162790711   0.125001991349766   1.0000000
B2   B   0.055529751204738   0.777762883669056   0.625015173926578   1.0000000
B2   B   0.388915059933753   0.777796236039275   0.625032227552150   1.0000000
B2   B   0.222142534944370   0.277737934138864   0.625146769843954   1.0000000
B2   B   0.722201722970529   0.777802428241583   0.624962953407954   1.0000000
B2   B   0.555565918739121   0.277797551598840   0.625339363450048   1.0000000
B2   B   0.888867620849590   0.277756665922279   0.624997003393286   1.0000000
B2   B   0.222228573474793   0.777780953404035   0.124907141193924   1.0000000
B2   B   0.055519276318573   0.277770880188841   0.124969386542840   1.0000000
B2   B   0.388828636642631   0.277638107399709   0.124617263158590   1.0000000
B2   B   0.555577171499868   0.777804278652259   0.125025682246882   1.0000000
B2   B   0.888837901097194   0.777770003352478   0.125050655170656   1.0000000
B2   B   0.722201722970529   0.277732628062188   0.125037046592078   1.0000000
B2   B   0.055521663578164   0.944415373003136   0.625012889895714   1.0000000
B2   B   0.388915059933753   0.944452157227770   0.625032227552150   1.0000000
B2   B   0.222166499317566   0.444467676022187   0.624953324366552   1.0000000
B2   B   0.555541525907727   0.444437429620528   0.624409181404666   1.0000000
B2   B   0.722234834191205   0.944463004733861   0.624998008650256   1.0000000
B2   B   0.888837901097194   0.444401231078082   0.624949344829390   1.0000000
B2   B   0.055521663578164   0.444439623908333   0.124987110104280   1.0000000
B2   B   0.222220211612727   0.944434408952117   0.124993934933035   1.0000000
B2   B   0.555589093423906   0.944461213378560   0.124972228322210   1.0000000
B2   B   0.388828636642631   0.444523862576253   0.124617263158590   1.0000000
B2   B   0.888867620849590   0.944444288260618   0.125002996606715   1.0000000
B2   B   0.722105419281485   0.444345528306585   0.124569635018034   1.0000000
B2   B   0.222220211612727   0.611119135993897   0.625006065066987   1.0000000
B2   B   0.055519276318573   0.111081729463062   0.625030613457203   1.0000000
B2   B   0.555565918739121   0.611101700473625   0.625339363450048   1.0000000
B2   B   0.388911599963250   0.111113642768170   0.624969735704371   1.0000000
B2   B   0.888812739147783   0.611073036240506   0.624800583356962   1.0000000
B2   B   0.055529751204738   0.611100200868944   0.124984826073411   1.0000000
B2   B   0.722234834191205   0.111105162790711   0.624998008650256   1.0000000
B2   B   0.222166499317566   0.111032156628752   0.125046675633416   1.0000000
B2   B   0.388911599963250   0.611131290528449   0.125030264295593   1.0000000
B2   B   0.722105419281485   0.611093224308283   0.124569635018033   1.0000000
B2   B   0.555577171499868   0.111106226181003   0.125025682246882   1.0000000
B2   B   0.388911599963250   0.611131290528449   0.624969735704371   1.0000000
B2   B   0.888883383202671   0.111108358267995   0.124987018272501   1.0000000
B2   B   0.222228573474793   0.777780953404035   0.625092858806091   1.0000000
B2   B   0.055519276318572   0.277770880188841   0.625030613457203   1.0000000
B2   B   0.388828636642631   0.277638107399709   0.625382736841418   1.0000000
B2   B   0.555577171499868   0.777804278652259   0.624974317753190   1.0000000
B2   B   0.888837901097194   0.777770003352478   0.624949344829390   1.0000000
B2   B   0.722201722970529   0.277732628062188   0.624962953407954   1.0000000
B2   B   0.055529751204738   0.777762883669056   0.124984826073411   1.0000000
B2   B   0.388915059933753   0.777796236039275   0.124967772447929   1.0000000
B2   B   0.222142534944370   0.277737934138864   0.124853230156068   1.0000000
B2   B   0.722201722970529   0.777802428241583   0.125037046592078   1.0000000
B2   B   0.555565918739121   0.277797551598840   0.124660636549950   1.0000000
B2   B   0.888867620849590   0.277756665922279   0.125002996606715   1.0000000
B2   B   0.055521663578164   0.444439623908333   0.625012889895714   1.0000000
B2   B   0.222220211612727   0.944434408952117   0.625006065066987   1.0000000
B2   B   0.555589093423906   0.944461213378560   0.625027771677807   1.0000000
B2   B   0.388828636642631   0.444523862576253   0.625382736841418   1.0000000
B2   B   0.888867620849590   0.944444288260618   0.624997003393286   1.0000000
B2   B   0.055521663578164   0.944415373003136   0.124987110104280   1.0000000
B2   B   0.722105419281485   0.444345528306585   0.625430364982003   1.0000000
B2   B   0.388915059933753   0.944452157227770   0.124967772447929   1.0000000
B2   B   0.222166499317566   0.444467676022187   0.125046675633416   1.0000000
B2   B   0.222220211612727   0.611119135993897   0.124993934933035   1.0000000
B2   B   0.555541525907727   0.444437429620528   0.125590818595290   1.0000000
B2   B   0.722234834191205   0.944463004733861   0.125001991349766   1.0000000
B2   B   0.888837901097194   0.444401231078082   0.125050655170656   1.0000000
B2   B   0.055529751204738   0.611100200868944   0.625015173926578   1.0000000
B2   B   0.222166499317566   0.111032156628752   0.624953324366552   1.0000000
B2   B   0.722105419281485   0.611093224308283   0.625430364982003   1.0000000
B2   B   0.555577171499868   0.111106226181003   0.624974317753190   1.0000000
B2   B   0.888883383202671   0.111108358267995   0.625012981727466   1.0000000


