data_1
_audit_creation_method   'vasp2cif'
_cell_length_a    17.52789999999977
_cell_length_b    17.52789999999977
_cell_length_c    15.0
_cell_angle_alpha    90.0
_cell_angle_beta    90.0
_cell_angle_gamma    119.99999999999916

_symmetry_space_group_name_H-M    'P 1'
loop_
_atom_site_label
_atom_site_type_symbol
_atom_site_fract_x
_atom_site_fract_y
_atom_site_fract_z
_atom_site_occupancy
B2   B   0.905389293897590   0.953941053733015   0.111024219282850   1.0000000
B2   B   0.903880551198921   0.096121469997076   0.111015945584757   1.0000000
B2   B   0.903336318346164   0.238871774023082   0.111053178635273   1.0000000
B2   B   0.903322287701204   0.381631904487312   0.110996510573341   1.0000000
B2   B   0.904381458705385   0.524472978639091   0.111008401513262   1.0000000
B2   B   0.906394637744869   0.667872956690551   0.111080207231884   1.0000000
B2   B   0.907503207421327   0.812174212054844   0.111069530183481   1.0000000
B2   B   0.047732854628383   0.952269166567619   0.110997569865688   1.0000000
B2   B   0.046060967462989   0.094612727298406   0.111024219282850   1.0000000
B2   B   0.045691328329713   0.237843810376680   0.111011800487450   1.0000000
B2   B   0.046310306783744   0.380905178392392   0.110999033322881   1.0000000
B2   B   0.047669342584510   0.523619534540085   0.111000627804355   1.0000000
B2   B   0.048600503941092   0.666485123484600   0.111032598183526   1.0000000
B2   B   0.048687322876417   0.809580997379783   0.111009657470197   1.0000000
B2   B   0.190421023816220   0.951314698319587   0.111009657470197   1.0000000
B2   B   0.187827809141157   0.092498813774669   0.111069530183481   1.0000000
B2   B   0.186607841211256   0.235264507152091   0.111023653923673   1.0000000
B2   B   0.188314182287555   0.379587801536399   0.111013195373544   1.0000000
B2   B   0.191213594178828   0.522678178601509   0.111040018070796   1.0000000
B2   B   0.191778844290644   0.665647381377967   0.111049290063872   1.0000000
B2   B   0.191329633663807   0.808672387532196   0.110990784213724   1.0000000
B2   B   0.333516897712399   0.951401517254912   0.111032598183526   1.0000000
B2   B   0.332129064506447   0.093607383451128   0.111080207231884   1.0000000
B2   B   0.327046035836324   0.232019636371778   0.110976645164095   1.0000000
B2   B   0.327025076485871   0.375835903436836   0.110910513759854   1.0000000
B2   B   0.335385109930715   0.520394255589540   0.111042939722031   1.0000000
B2   B   0.335496228823585   0.664505792373413   0.111084474826523   1.0000000
B2   B   0.334354639819031   0.808223176905358   0.111049290063872   1.0000000
B2   B   0.476382486656913   0.952332678611493   0.111000627804355   1.0000000
B2   B   0.475529042557908   0.095620562490611   0.111008401513262   1.0000000
B2   B   0.473947727097728   0.238498903345230   0.111047696851037   1.0000000
B2   B   0.463516197875227   0.373589624191086   0.111007707581685   1.0000000
B2   B   0.479607765607459   0.664616911266283   0.111042939722031   1.0000000
B2   B   0.477323842595488   0.808788427017175   0.111040018070796   1.0000000
B2   B   0.619096842803612   0.953691714412259   0.110999033322881   1.0000000
B2   B   0.618370116708691   0.096679733494792   0.110996510573341   1.0000000
B2   B   0.617459948850858   0.240140043971478   0.111042579463615   1.0000000
B2   B   0.615820559474097   0.384181461721906   0.111079284996627   1.0000000
B2   B   0.626412397004917   0.536485823321771   0.111007707581685   1.0000000
B2   B   0.624166117759168   0.672976944711127   0.110910513759854   1.0000000
B2   B   0.620414219659604   0.811687838908447   0.111013195373544   1.0000000
B2   B   0.762158210819323   0.954310692866289   0.111011800487450   1.0000000
B2   B   0.761130247172921   0.096665702849832   0.111053178635273   1.0000000
B2   B   0.760464652796614   0.239537368399389   0.111061963418541   1.0000000
B2   B   0.759861977224525   0.382542072345146   0.111042579463615   1.0000000
B2   B   0.761503117850774   0.526054294099270   0.111047696851037   1.0000000
B2   B   0.767982384824225   0.672955985360674   0.110976645164095   1.0000000
B2   B   0.764737514043911   0.813394179984748   0.111023653923673   1.0000000
N2   N   0.953569010752885   0.906583827006775   0.111010424487712   1.0000000
N2   N   0.951541083367727   0.048460318550278   0.110999750053821   1.0000000
N2   N   0.950663266470659   0.190987216123840   0.111017186736934   1.0000000
N2   N   0.950854706782989   0.333896045431695   0.110993641148620   1.0000000
N2   N   0.951996580257222   0.476704588051091   0.110964398303446   1.0000000
N2   N   0.953468993304266   0.619661117058190   0.111028977556080   1.0000000
N2   N   0.954104340923676   0.763178189259069   0.111047321041668   1.0000000
N2   N   0.095526055055455   0.904475346862543   0.110964386377009   1.0000000
N2   N   0.093417574911225   0.046432391165121   0.111010424487712   1.0000000
N2   N   0.091986615124633   0.188958873938354   0.111004667802905   1.0000000
N2   N   0.092876182466356   0.332701678510622   0.110990178803746   1.0000000
N2   N   0.095097263282813   0.475954286021252   0.110990238742957   1.0000000
N2   N   0.096136488041818   0.618777848316928   0.111011809530650   1.0000000
N2   N   0.096202152504418   0.761662450296582   0.110976924252102   1.0000000
N2   N   0.238338951621423   0.903799249413581   0.110976924252102   1.0000000
N2   N   0.236823212658937   0.045897060994330   0.111047321041668   1.0000000
N2   N   0.232778289965534   0.185976628215024   0.111038343503679   1.0000000
N2   N   0.232280938873787   0.329212911398224   0.110972143680046   1.0000000
N2   N   0.237923581419625   0.474620957245632   0.111022917173329   1.0000000
N2   N   0.239369825663277   0.618059184870237   0.111057466643224   1.0000000
N2   N   0.238984176486160   0.761017225431845   0.111026340821416   1.0000000
N2   N   0.381223553601070   0.903864913876179   0.111011809530650   1.0000000
N2   N   0.380340284859810   0.046532408613740   0.111028977556080   1.0000000
N2   N   0.378291993088189   0.187901371669102   0.111040621479955   1.0000000
N2   N   0.370532811420724   0.324012430249464   0.110827014435312   1.0000000
N2   N   0.376869194858959   0.468469174876708   0.110927279140170   1.0000000
N2   N   0.383056194359502   0.616945207558497   0.111072630955320   1.0000000
N2   N   0.381942217047762   0.760631576254729   0.111057466643224   1.0000000
N2   N   0.524047115895744   0.904904138635185   0.110990238742957   1.0000000
N2   N   0.523296813865906   0.048004821660784   0.110964398303446   1.0000000
N2   N   0.522266906418837   0.191026719790023   0.111015708551109   1.0000000
N2   N   0.519968693429818   0.333813893871710   0.111049967832874   1.0000000
N2   N   0.531532227040289   0.623132207059040   0.110927279140170   1.0000000
N2   N   0.525380444671365   0.762077820498381   0.111022917173329   1.0000000
N2   N   0.667299723406374   0.907125219451642   0.110990178803746   1.0000000
N2   N   0.666105356485302   0.049146695135016   0.110993641148620   1.0000000
N2   N   0.665315398677358   0.192125672933823   0.111016560235879   1.0000000
N2   N   0.664352397750130   0.335649004166867   0.111048499409516   1.0000000
N2   N   0.666187508045287   0.480032708487179   0.111049967832874   1.0000000
N2   N   0.675988971667533   0.629468590497275   0.110827014435312   1.0000000
N2   N   0.670788490518772   0.767720463044219   0.110972143680046   1.0000000
N2   N   0.811042527979644   0.908014786793366   0.111004667802905   1.0000000
N2   N   0.809014185794159   0.049338135447346   0.111017186736934   1.0000000
N2   N   0.808193273292778   0.191808128625221   0.111059070927033   1.0000000
N2   N   0.807875728984176   0.334686003239638   0.111016560235879   1.0000000
N2   N   0.808974682127975   0.477734495498159   0.111015708551109   1.0000000
N2   N   0.812100030248895   0.621709408829810   0.111040621479955   1.0000000
N2   N   0.814024773702975   0.767223111952472   0.111038343503679   1.0000000
As2   As   0.503030845233686   0.496971175963311   0.111655860737822   1.0000000


