data_1
_audit_creation_method   'vasp2cif'
_cell_length_a    17.52789999999977
_cell_length_b    17.52789999999977
_cell_length_c    15.0
_cell_angle_alpha    90.0
_cell_angle_beta    90.0
_cell_angle_gamma    119.99999999999916

_symmetry_space_group_name_H-M    'P 1'
loop_
_atom_site_label
_atom_site_type_symbol
_atom_site_fract_x
_atom_site_fract_y
_atom_site_fract_z
_atom_site_occupancy
As2   As   0.523445656367216   0.492608408563910   0.110663107830511   1.0000000
B2   B   0.907516270141622   0.954103924142531   0.111674895047596   1.0000000
B2   B   0.903370496214792   0.093795317975800   0.111128628000976   1.0000000
B2   B   0.902381331368141   0.235964781736292   0.111039565101343   1.0000000
B2   B   0.903251831439833   0.379374479505609   0.111357690083019   1.0000000
B2   B   0.907148675553572   0.523894499922597   0.111936155541731   1.0000000
B2   B   0.911714034583667   0.669210721581961   0.111818890298015   1.0000000
B2   B   0.912391353313974   0.814146240953430   0.112130049116102   1.0000000
B2   B   0.050599438802168   0.954255128833725   0.112007392299254   1.0000000
B2   B   0.047796515659898   0.095492896726748   0.111249524438731   1.0000000
B2   B   0.044829695074725   0.236290545849485   0.110842223709867   1.0000000
B2   B   0.044116325369401   0.379102242693908   0.110850434770376   1.0000000
B2   B   0.045705114649392   0.523192738571893   0.111425498093961   1.0000000
B2   B   0.049483715141209   0.667586872380611   0.112180989257746   1.0000000
B2   B   0.051441275605588   0.811508818366340   0.112348546835218   1.0000000
B2   B   0.192125146137225   0.953128437777931   0.111659839192937   1.0000000
B2   B   0.190147356812552   0.094695863059387   0.111539125562213   1.0000000
B2   B   0.188611153432316   0.237519315140128   0.111576173314472   1.0000000
B2   B   0.185182795016893   0.378885949142917   0.111310115775985   1.0000000
B2   B   0.184248808541491   0.522987212613964   0.110780741897936   1.0000000
B2   B   0.188275693915307   0.666901891054494   0.111080317288957   1.0000000
B2   B   0.191668339382176   0.810296830670000   0.111460401431898   1.0000000
B2   B   0.333814230482588   0.952059655797568   0.110976531089990   1.0000000
B2   B   0.333385271930826   0.094525673951971   0.111506287427375   1.0000000
B2   B   0.329397136731563   0.234611754203071   0.112278142507487   1.0000000
B2   B   0.329531654394860   0.381643123059114   0.113225496388071   1.0000000
B2   B   0.320581462276732   0.522686128359177   0.112382023224750   1.0000000
B2   B   0.327093512692768   0.666781785564081   0.111022512462100   1.0000000
B2   B   0.332772284179521   0.809359590477618   0.110627524111930   1.0000000
B2   B   0.475685039690769   0.949566395193989   0.110704969788208   1.0000000
B2   B   0.475937205012452   0.093089537561549   0.111060643814563   1.0000000
B2   B   0.475511234000525   0.235203892576346   0.111315683707031   1.0000000
B2   B   0.467022852054737   0.367928295919057   0.112308487857106   1.0000000
B2   B   0.459420295524102   0.553505559448040   0.111552091251635   1.0000000
B2   B   0.464332603728536   0.656122552455774   0.110756510971421   1.0000000
B2   B   0.474413724122592   0.804579566442868   0.110576140635269   1.0000000
B2   B   0.617519133389343   0.948947122284265   0.111032275541195   1.0000000
B2   B   0.617989243735323   0.092751717771239   0.111197142353613   1.0000000
B2   B   0.618525772912196   0.236443928558924   0.111063550236110   1.0000000
B2   B   0.620454414118459   0.380915479067025   0.109281378672695   1.0000000
B2   B   0.643743470806329   0.536972449976777   0.104150041617040   1.0000000
B2   B   0.639133617589566   0.674472120221504   0.107968824326210   1.0000000
B2   B   0.617290551203336   0.805246411067600   0.110583461578669   1.0000000
B2   B   0.761132597561682   0.950601910909964   0.111241184572173   1.0000000
B2   B   0.760124633630507   0.092795306245697   0.111294431689691   1.0000000
B2   B   0.760462949928521   0.236001669527526   0.111344129339739   1.0000000
B2   B   0.762353766782234   0.379949861842535   0.110927995592936   1.0000000
B2   B   0.769941330465966   0.525585061054416   0.109012568449842   1.0000000
B2   B   0.778540423254119   0.675161386741449   0.107936961841114   1.0000000
B2   B   0.769033061648045   0.813400160049292   0.110541490931935   1.0000000
N2   N   0.956365147826402   0.907794631754056   0.112245182512322   1.0000000
N2   N   0.952931340463717   0.048199747094664   0.111295057891918   1.0000000
N2   N   0.950083164000618   0.188604447264209   0.110849267895810   1.0000000
N2   N   0.949609836625547   0.331091742379998   0.111003083434187   1.0000000
N2   N   0.951551684872123   0.474700340997115   0.111728840980098   1.0000000
N2   N   0.955345376102984   0.619301420341280   0.112421657558390   1.0000000
N2   N   0.957153900234832   0.764189890459673   0.112453020379770   1.0000000
N2   N   0.097627948628565   0.906284152731177   0.112091903020317   1.0000000
N2   N   0.095992432519631   0.048493853488972   0.111476206993131   1.0000000
N2   N   0.094070036486569   0.190291288487691   0.111008657460104   1.0000000
N2   N   0.091267165828760   0.331104529841877   0.110786014243606   1.0000000
N2   N   0.090753478081610   0.474283406610312   0.110838614164496   1.0000000
N2   N   0.094153262470815   0.618490462371459   0.111604969329708   1.0000000
N2   N   0.097126203226848   0.762722671141909   0.112091057397881   1.0000000
N2   N   0.239144304156764   0.905258877456453   0.111311293822649   1.0000000
N2   N   0.238725896228623   0.048064817350578   0.111538483471623   1.0000000
N2   N   0.235858212072955   0.189327228365105   0.111693788276549   1.0000000
N2   N   0.235403549715699   0.333259648136298   0.112025465827637   1.0000000
N2   N   0.228939144799425   0.473546293845724   0.111115290245489   1.0000000
N2   N   0.233095334956862   0.618051536688983   0.110717444658862   1.0000000
N2   N   0.237859829039310   0.761960136009759   0.110969314457707   1.0000000
N2   N   0.380897552590645   0.904046075632716   0.110580202211300   1.0000000
N2   N   0.381138919602421   0.047144372195872   0.111109209941447   1.0000000
N2   N   0.380315902931352   0.189968371211154   0.111812686758525   1.0000000
N2   N   0.374963126959785   0.329764314531649   0.113258305459437   1.0000000
N2   N   0.371745599285964   0.479063152036865   0.113829535440275   1.0000000
N2   N   0.370725563694873   0.617412942611919   0.111850657342126   1.0000000
N2   N   0.379253625066228   0.760906009792587   0.110546204792992   1.0000000
N2   N   0.522522813141626   0.900429690400896   0.110684951583319   1.0000000
N2   N   0.523134002930366   0.045072197785891   0.110930244120321   1.0000000
N2   N   0.523410216792788   0.188621539077093   0.111081376616617   1.0000000
N2   N   0.523346904987186   0.331291964813154   0.110831294143192   1.0000000
N2   N   0.520736914757772   0.753012206048601   0.110416771221999   1.0000000
N2   N   0.664985685263721   0.900552019046460   0.111063339813822   1.0000000
N2   N   0.665028739920794   0.044454787056545   0.111235907897525   1.0000000
N2   N   0.665417305180635   0.188453442557958   0.111327755495028   1.0000000
N2   N   0.666476742021989   0.332684617665156   0.110510329096657   1.0000000
N2   N   0.674910311796492   0.478016076420035   0.106541620044635   1.0000000
N2   N   0.685934722827620   0.629346301789369   0.103645887243796   1.0000000
N2   N   0.672750323751409   0.763880101859932   0.109794514965350   1.0000000
N2   N   0.812329746846169   0.906396534532258   0.111313891930132   1.0000000
N2   N   0.807983488191607   0.045436072604334   0.111231461777514   1.0000000
N2   N   0.807423243273578   0.188043556171835   0.111269589960452   1.0000000
N2   N   0.808187279145369   0.331450214369814   0.111318509551170   1.0000000
N2   N   0.812659126734497   0.475565667742955   0.111108572311147   1.0000000
N2   N   0.817822405001866   0.621370633144705   0.109649211331838   1.0000000
N2   N   0.818521359710823   0.767780378676273   0.110808721736348   1.0000000


