data_1
_audit_creation_method   'vasp2cif'
_cell_length_a    17.52789999999977
_cell_length_b    17.52789999999977
_cell_length_c    15.0
_cell_angle_alpha    90.0
_cell_angle_beta    90.0
_cell_angle_gamma    119.99999999999916

_symmetry_space_group_name_H-M    'P 1'
loop_
_atom_site_label
_atom_site_type_symbol
_atom_site_fract_x
_atom_site_fract_y
_atom_site_fract_z
_atom_site_occupancy
B2   B   0.905526873748561   0.952876946249688   0.108323194077357   1.0000000
B2   B   0.904777996510347   0.095223750181646   0.108932008636907   1.0000000
B2   B   0.904544912996663   0.237973481449179   0.109417130647872   1.0000000
B2   B   0.904758521090736   0.380943714349071   0.108877079671758   1.0000000
B2   B   0.905536173688877   0.524057579961432   0.108338298169149   1.0000000
B2   B   0.905697988766499   0.667130854560255   0.109047647125235   1.0000000
B2   B   0.905680352110362   0.809974668643063   0.109023395170115   1.0000000
B2   B   0.047775303450854   0.952226419914098   0.109377029616311   1.0000000
B2   B   0.047124769092329   0.094474846723503   0.108323193604356   1.0000000
B2   B   0.046752009691554   0.237391368888665   0.107949953802416   1.0000000
B2   B   0.046728334776537   0.380788471489279   0.108010662813041   1.0000000
B2   B   0.047103672060613   0.524076056638464   0.108354817733405   1.0000000
B2   B   0.047783634698724   0.667003566424065   0.109458414382796   1.0000000
B2   B   0.047935911393166   0.809697616737142   0.110111429814968   1.0000000
B2   B   0.190304132955862   0.952065851699843   0.110111428288971   1.0000000
B2   B   0.190027032392926   0.094321360597636   0.109023391046117   1.0000000
B2   B   0.188368249967454   0.235658086810936   0.109279291490985   1.0000000
B2   B   0.188241002230480   0.379829537897722   0.110744958900044   1.0000000
B2   B   0.188350070136093   0.524134456512286   0.109486959476297   1.0000000
B2   B   0.190005232583460   0.667148008985554   0.109240776165902   1.0000000
B2   B   0.190304185231355   0.809697509309635   0.110183111335192   1.0000000
B2   B   0.332998169280907   0.952218089135286   0.109458416796794   1.0000000
B2   B   0.332870859416786   0.094303751153525   0.109047642748235   1.0000000
B2   B   0.332448160261159   0.236297863640072   0.111996786122732   1.0000000
B2   B   0.327927286787732   0.375353346951942   0.119522771193794   1.0000000
B2   B   0.327915354192681   0.524022026624787   0.119538469085395   1.0000000
B2   B   0.332415488042324   0.667586214731671   0.112187190674096   1.0000000
B2   B   0.332853644334452   0.809996396259557   0.109240779698905   1.0000000
B2   B   0.475925630780527   0.952897908869377   0.108354823044407   1.0000000
B2   B   0.475944161544567   0.094465648987126   0.108338306862149   1.0000000
B2   B   0.475889243385281   0.235651719281161   0.109439312632980   1.0000000
B2   B   0.475982814495646   0.375352679764651   0.119661066492270   1.0000000
B2   B   0.475979757808223   0.672086503147337   0.119538469599401   1.0000000
B2   B   0.475867259277706   0.811651616931922   0.109486965213297   1.0000000
B2   B   0.619213267482740   0.953273349640427   0.108010664920042   1.0000000
B2   B   0.619057955998920   0.095243166191251   0.108877080757759   1.0000000
B2   B   0.619253232394525   0.237382700041709   0.108054086785353   1.0000000
B2   B   0.620162035688638   0.379839698520367   0.110914912789350   1.0000000
B2   B   0.624648889205370   0.524018852707369   0.119661061234269   1.0000000
B2   B   0.624648302503095   0.672074436928273   0.119522770906792   1.0000000
B2   B   0.620172205262282   0.811760767172547   0.110744954552041   1.0000000
B2   B   0.762610371639324   0.953249709835423   0.107949956028411   1.0000000
B2   B   0.762028214311840   0.095456763537349   0.109417133050871   1.0000000
B2   B   0.762042754250203   0.237958950929825   0.109389332466318   1.0000000
B2   B   0.762619122342286   0.380748523036469   0.108054078378354   1.0000000
B2   B   0.764350032894816   0.524112439421736   0.109439304668983   1.0000000
B2   B   0.763703795130927   0.667553520283812   0.111996794750731   1.0000000
B2   B   0.764343584613064   0.811633466714579   0.109279293964981   1.0000000
Si2   Si   0.476172013250472   0.523829642296516   0.130930371344938   1.0000000
N2   N   0.952684179312782   0.904902056690675   0.108893581526532   1.0000000
N2   N   0.952385430146800   0.047616287163191   0.108788599567985   1.0000000
N2   N   0.952070982399157   0.190297506677135   0.108952453660052   1.0000000
N2   N   0.952051659004465   0.333183916387794   0.108972374151803   1.0000000
N2   N   0.952367397494971   0.476157262814408   0.108685135644779   1.0000000
N2   N   0.952696657613325   0.619205401628116   0.108924046451622   1.0000000
N2   N   0.952777808860139   0.762102960799917   0.109472355142601   1.0000000
N2   N   0.095289332672254   0.904712419795734   0.110273261603100   1.0000000
N2   N   0.095099648747318   0.047317539502198   0.108893588023528   1.0000000
N2   N   0.094155418761249   0.189480406128939   0.107554089110825   1.0000000
N2   N   0.094156971482153   0.332799268898327   0.107696984540897   1.0000000
N2   N   0.094147993710311   0.476105522840178   0.107683720142311   1.0000000
N2   N   0.095082522342562   0.619214111471476   0.108995313609375   1.0000000
N2   N   0.095292875174486   0.762032443087977   0.110334343297742   1.0000000
N2   N   0.237969269073039   0.904708835583532   0.110334344189743   1.0000000
N2   N   0.237898768577111   0.047223960103829   0.109472347719604   1.0000000
N2   N   0.237601849576586   0.189736353054575   0.109329774478746   1.0000000
N2   N   0.235094761421962   0.330804560874702   0.112200396180725   1.0000000
N2   N   0.235080287940514   0.475717117162880   0.112295217469553   1.0000000
N2   N   0.237573726262119   0.619298337522499   0.109642318734757   1.0000000
N2   N   0.237884791009674   0.762116843185332   0.109659652361629   1.0000000
N2   N   0.380787559631527   0.904919103440423   0.108995317759378   1.0000000
N2   N   0.380796325558898   0.047305093306666   0.108924054199622   1.0000000
N2   N   0.380726674021571   0.189724321072513   0.109414904818054   1.0000000
N2   N   0.380455009245242   0.332360619847488   0.118355320658334   1.0000000
N2   N   0.370012481634084   0.470737491012134   0.127427560381360   1.0000000
N2   N   0.380452585790273   0.619549212168678   0.118351350026280   1.0000000
N2   N   0.380703400966500   0.762427980617875   0.109642323355758   1.0000000
N2   N   0.523896209387863   0.905853601805672   0.107683733920310   1.0000000
N2   N   0.523844395534642   0.047634264265046   0.108685136089785   1.0000000
N2   N   0.523931297386005   0.189474840821811   0.107690471004890   1.0000000
N2   N   0.524271783770192   0.330808211595953   0.112391461922281   1.0000000
N2   N   0.529261850760166   0.470739745864855   0.127605875996947   1.0000000
N2   N   0.529264168270887   0.629989200504952   0.127427561959362   1.0000000
N2   N   0.524284665450117   0.764921568387491   0.112295214653551   1.0000000
N2   N   0.667202521713670   0.905844775990884   0.107696982327898   1.0000000
N2   N   0.666817753343161   0.047949995244523   0.108972372683808   1.0000000
N2   N   0.666852593909461   0.190297252193556   0.108939337454384   1.0000000
N2   N   0.667215436800365   0.332786373748642   0.107880463401168   1.0000000
N2   N   0.669193452536047   0.475729932239792   0.112391441523281   1.0000000
N2   N   0.667641010796506   0.619546685299772   0.118355323293332   1.0000000
N2   N   0.669197105579265   0.764906996046043   0.112200389049725   1.0000000
N2   N   0.810521306387057   0.905846296272745   0.107554089486830   1.0000000
N2   N   0.809704218599853   0.047930726673874   0.108952463347051   1.0000000
N2   N   0.809543515504249   0.190458139187679   0.110031496391783   1.0000000
N2   N   0.809704485914474   0.333149091251556   0.108939331514389   1.0000000
N2   N   0.810527050733197   0.476070457064014   0.107690450493887   1.0000000
N2   N   0.810277400294470   0.619275030025416   0.109414920171057   1.0000000
N2   N   0.810265309039469   0.762399842207408   0.109329785774741   1.0000000


