data_1
_audit_creation_method   'vasp2cif'
_cell_length_a    17.52789999999977
_cell_length_b    17.52789999999977
_cell_length_c    15.0
_cell_angle_alpha    90.0
_cell_angle_beta    90.0
_cell_angle_gamma    119.99999999999916

_symmetry_space_group_name_H-M    'P 1'
loop_
_atom_site_label
_atom_site_type_symbol
_atom_site_fract_x
_atom_site_fract_y
_atom_site_fract_z
_atom_site_occupancy
B2   B   0.904798579548378   0.951829275900713   0.117849374158036   1.0000000
B2   B   0.905255647096819   0.094906622263168   0.118062954774178   1.0000000
B2   B   0.905396419761641   0.237855401092780   0.116997932124046   1.0000000
B2   B   0.905384233578435   0.380744973337190   0.115418272246504   1.0000000
B2   B   0.904658352825562   0.523441125958331   0.114082355874791   1.0000000
B2   B   0.903770630936764   0.665891088007387   0.114550125949347   1.0000000
B2   B   0.903301259672343   0.807964071667101   0.116042953505469   1.0000000
B2   B   0.047773260148192   0.952362476097515   0.117547419609394   1.0000000
B2   B   0.048314550747037   0.095336791773656   0.117823303735743   1.0000000
B2   B   0.048387819270602   0.238133898895916   0.116306296347730   1.0000000
B2   B   0.048206610000865   0.380952556619877   0.114351355898444   1.0000000
B2   B   0.047808669261251   0.523759739799080   0.114054067296272   1.0000000
B2   B   0.047403121765728   0.666512873391711   0.114999074355912   1.0000000
B2   B   0.047295458509094   0.809311381281243   0.116563754165070   1.0000000
B2   B   0.190827184295637   0.952842055894712   0.116594173088042   1.0000000
B2   B   0.192182265396281   0.096831608959017   0.116047557329442   1.0000000
B2   B   0.191607104488810   0.238789514137398   0.114452717726082   1.0000000
B2   B   0.191099364376177   0.381165643385180   0.109270180223498   1.0000000
B2   B   0.190720982101679   0.523889613330554   0.108454989572506   1.0000000
B2   B   0.190583780688744   0.666707474093926   0.111109385263063   1.0000000
B2   B   0.190484593648873   0.809647402585273   0.114846798186034   1.0000000
B2   B   0.333621362523373   0.952743042918103   0.115004269055546   1.0000000
B2   B   0.334255312647947   0.096370299615975   0.114556168502410   1.0000000
B2   B   0.337247576860536   0.242163137468817   0.112231654813172   1.0000000
B2   B   0.333698606254755   0.382018972165237   0.100534855462025   1.0000000
B2   B   0.333019447704200   0.523405434812487   0.092631583808186   1.0000000
B2   B   0.333570710688704   0.666580906596629   0.102076971207811   1.0000000
B2   B   0.333433551795427   0.809563825740002   0.111129115867696   1.0000000
B2   B   0.476386626831438   0.952348780852683   0.114065698279497   1.0000000
B2   B   0.476703993065821   0.095496200261455   0.114025847928387   1.0000000
B2   B   0.477331631017543   0.239022770997565   0.110416090934225   1.0000000
B2   B   0.484826565139272   0.388251668635893   0.109067784164905   1.0000000
B2   B   0.476749714639532   0.667142085230656   0.092620941976000   1.0000000
B2   B   0.476256557559835   0.809432314761043   0.108472583277969   1.0000000
B2   B   0.619200864783098   0.951960975872520   0.114355706632129   1.0000000
B2   B   0.619409132067784   0.094784803373058   0.115410749692877   1.0000000
B2   B   0.619703636575402   0.237430493001400   0.112348075725402   1.0000000
B2   B   0.620496436376942   0.379642818597521   0.108575674089453   1.0000000
B2   B   0.611882390880760   0.515317078879761   0.109026787447138   1.0000000
B2   B   0.618133283760236   0.666461622761124   0.100491596407590   1.0000000
B2   B   0.618989060415797   0.809060341300771   0.109263042806066   1.0000000
B2   B   0.762017431560633   0.951770697771691   0.116300908032467   1.0000000
B2   B   0.762318054651344   0.094778984085611   0.116997028525582   1.0000000
B2   B   0.762507322529595   0.237653462568749   0.115574317408045   1.0000000
B2   B   0.762728807669871   0.380448231667429   0.112381934516194   1.0000000
B2   B   0.761115279027173   0.522809630041157   0.110425642989712   1.0000000
B2   B   0.757971415506616   0.662899808214151   0.112208879304407   1.0000000
B2   B   0.761351875343263   0.808546809892386   0.114460661362593   1.0000000
N2   N   0.951988983783941   0.903795607147088   0.117488661913729   1.0000000
N2   N   0.952876110985694   0.047265662058422   0.118438425733350   1.0000000
N2   N   0.953020590971117   0.190255184582085   0.117600472047272   1.0000000
N2   N   0.952935293839348   0.333159722198884   0.116127641493573   1.0000000
N2   N   0.952492053251605   0.476008571750575   0.115051334953132   1.0000000
N2   N   0.951868923629628   0.618673021860828   0.114812999700173   1.0000000
N2   N   0.951625587222449   0.761102612689169   0.115975890427601   1.0000000
N2   N   0.095367300750820   0.904766268536503   0.117242410000008   1.0000000
N2   N   0.096353496666574   0.048152209552437   0.117440675382603   1.0000000
N2   N   0.096190416217639   0.190626970544768   0.116957678096036   1.0000000
N2   N   0.095828359046802   0.333358155231925   0.113786596765676   1.0000000
N2   N   0.095484578574240   0.476212904555954   0.112895461899511   1.0000000
N2   N   0.095204838599974   0.619043064318793   0.113750587354022   1.0000000
N2   N   0.095055825959008   0.761845423264646   0.115848252411679   1.0000000
N2   N   0.238292258942137   0.905087747336130   0.115860701340966   1.0000000
N2   N   0.239048421773497   0.048517108252353   0.116030154488653   1.0000000
N2   N   0.241068453154528   0.192903284991601   0.114300683249509   1.0000000
N2   N   0.238769046736534   0.333466501339966   0.110020140188233   1.0000000
N2   N   0.238247021213087   0.476326043394765   0.104979132028943   1.0000000
N2   N   0.238239288286406   0.619160752318071   0.106937925562937   1.0000000
N2   N   0.238096818276330   0.762039672041892   0.112113382231186   1.0000000
N2   N   0.381100243444820   0.904946572482919   0.113779949970525   1.0000000
N2   N   0.381467974758391   0.048281215505293   0.114778297837155   1.0000000
N2   N   0.382544629528079   0.192298787634037   0.112544986746233   1.0000000
N2   N   0.387483746062269   0.339921868741037   0.109220519369519   1.0000000
N2   N   0.377322900728449   0.473532850514756   0.080690331578063   1.0000000
N2   N   0.381027139205270   0.619128281984658   0.092306609558681   1.0000000
N2   N   0.380984432142774   0.761912164101718   0.106957120872032   1.0000000
N2   N   0.523934048634032   0.904672073740808   0.112908735570068   1.0000000
N2   N   0.524143223958431   0.047678205877977   0.115025110962449   1.0000000
N2   N   0.524533871681149   0.190894761637912   0.111998760051198   1.0000000
N2   N   0.525786719407346   0.334757164432632   0.107798184261203   1.0000000
N2   N   0.526619478205542   0.622845170908469   0.080646497700676   1.0000000
N2   N   0.523830372619286   0.761906611410710   0.104985563812102   1.0000000
N2   N   0.666797726145321   0.904323436174201   0.113775388781596   1.0000000
N2   N   0.667008222623346   0.047234831964097   0.116144873863065   1.0000000
N2   N   0.667213281173478   0.189994804570274   0.114749727168939   1.0000000
N2   N   0.667646766894181   0.332509943687850   0.110613380770984   1.0000000
N2   N   0.665369154543543   0.474345034155071   0.107762511935683   1.0000000
N2   N   0.660212693575944   0.612662289379693   0.109167406927690   1.0000000
N2   N   0.666693506520101   0.761391705685387   0.110010789823954   1.0000000
N2   N   0.809525559274495   0.903962560190009   0.116970899697405   1.0000000
N2   N   0.809916498028396   0.047150641430987   0.117584138755653   1.0000000
N2   N   0.810075556913464   0.190101288115903   0.117060408625918   1.0000000
N2   N   0.810177912267464   0.332937606790482   0.114764951098485   1.0000000
N2   N   0.809251948174642   0.475613184024034   0.112077763785999   1.0000000
N2   N   0.807843322384121   0.617608383733463   0.112534783422799   1.0000000
N2   N   0.807218743413163   0.759082796938601   0.114303149436416   1.0000000
Si2   Si   0.481882196245300   0.518260410357507   0.030345857093624   1.0000000


