data_1
_audit_creation_method   'vasp2cif'
_cell_length_a    17.52789999999977
_cell_length_b    17.52789999999977
_cell_length_c    15.0
_cell_angle_alpha    90.0
_cell_angle_beta    90.0
_cell_angle_gamma    119.99999999999916

_symmetry_space_group_name_H-M    'P 1'
loop_
_atom_site_label
_atom_site_type_symbol
_atom_site_fract_x
_atom_site_fract_y
_atom_site_fract_z
_atom_site_occupancy
B2   B   0.904845943329292   0.952511757167350   0.111016696061936   1.0000000
B2   B   0.904731425621258   0.095270353313743   0.111040276261251   1.0000000
B2   B   0.904759756005876   0.238098629826977   0.111042440357395   1.0000000
B2   B   0.904888222458162   0.380959416996589   0.111010195851501   1.0000000
B2   B   0.905438901011352   0.523910271986547   0.111025663935673   1.0000000
B2   B   0.905488964690525   0.666974831571298   0.111072247651543   1.0000000
B2   B   0.905415591250250   0.810037059088215   0.111053616602318   1.0000000
B2   B   0.047655212711935   0.952346518910064   0.111018432049240   1.0000000
B2   B   0.047489964706650   0.095155749997708   0.111016694547933   1.0000000
B2   B   0.047491799964063   0.238066617058383   0.111006716288419   1.0000000
B2   B   0.047503157941376   0.380946864050305   0.111024257865840   1.0000000
B2   B   0.047634611158033   0.523844054073504   0.111019056880932   1.0000000
B2   B   0.047848363106370   0.666754164146454   0.111027010717310   1.0000000
B2   B   0.047872889490274   0.809611534329683   0.111001316654531   1.0000000
B2   B   0.190390197370313   0.952128809226726   0.111001313769528   1.0000000
B2   B   0.189964699557785   0.094586147128748   0.111053612998317   1.0000000
B2   B   0.190158284338822   0.237823399690736   0.111006371418679   1.0000000
B2   B   0.190134614030109   0.380944273495189   0.111006444821604   1.0000000
B2   B   0.189906498518482   0.523899623521538   0.111043785053339   1.0000000
B2   B   0.190327666417850   0.666771279311477   0.111052008285157   1.0000000
B2   B   0.190479092935860   0.809522507467136   0.111002384529807   1.0000000
B2   B   0.333247453352548   0.952153194634631   0.111027012838316   1.0000000
B2   B   0.333026961229703   0.094512715913476   0.111072246518540   1.0000000
B2   B   0.332067708184682   0.236451418528362   0.111043729005188   1.0000000
B2   B   0.333014189537209   0.380815030544190   0.111028372775376   1.0000000
B2   B   0.332014855004192   0.524165827988504   0.111008180094119   1.0000000
B2   B   0.332968895049587   0.667033033884410   0.111059048965972   1.0000000
B2   B   0.333230371129523   0.809674074838150   0.111052009814153   1.0000000
B2   B   0.476157561092495   0.952367053774969   0.111019063777928   1.0000000
B2   B   0.476091410913452   0.094562455924644   0.111025672223671   1.0000000
B2   B   0.475860945016964   0.236437630673806   0.111054706320246   1.0000000
B2   B   0.473936396867564   0.376448976591843   0.111052296508295   1.0000000
B2   B   0.473927112490752   0.526074430549248   0.111073110271891   1.0000000
B2   B   0.475835905098500   0.667987013045807   0.111008180521119   1.0000000
B2   B   0.476102143815458   0.810095596357513   0.111043792684340   1.0000000
B2   B   0.619054895299694   0.952498678863622   0.111024261613839   1.0000000
B2   B   0.619042287153412   0.095113378624837   0.111010198929501   1.0000000
B2   B   0.619052719906281   0.237785286903131   0.111025069584304   1.0000000
B2   B   0.619207848533418   0.380793903633584   0.111008340088201   1.0000000
B2   B   0.623552888094156   0.526065378994439   0.111052294876293   1.0000000
B2   B   0.619186599148812   0.666987382717793   0.111028370129379   1.0000000
B2   B   0.619057394329815   0.809867161517884   0.111006445995605   1.0000000
B2   B   0.761935108332612   0.952509984417937   0.111006723622421   1.0000000
B2   B   0.761903122534024   0.095241988033128   0.111042442700396   1.0000000
B2   B   0.761965511874136   0.238036119598868   0.111054142524974   1.0000000
B2   B   0.762216273951874   0.380948956143717   0.111025064465306   1.0000000
B2   B   0.763564024472195   0.524140890566036   0.111054703013252   1.0000000
B2   B   0.763550403226637   0.667934050797313   0.111043733131189   1.0000000
B2   B   0.762178257279263   0.809843371534177   0.111006379619678   1.0000000
C2   C   0.523792959211253   0.476208898477747   0.111134722196291   1.0000000
N2   N   0.952625742513561   0.905055147564111   0.111015512874785   1.0000000
N2   N   0.952355083517308   0.047646646321691   0.111005744051349   1.0000000
N2   N   0.952333751696580   0.190429283914884   0.111005651701019   1.0000000
N2   N   0.952342722065731   0.333246115475020   0.110996669269551   1.0000000
N2   N   0.952614148328410   0.476139281590964   0.110973003223329   1.0000000
N2   N   0.952785725041716   0.619179899522032   0.111035270136377   1.0000000
N2   N   0.952791421356842   0.762202669870073   0.111024255584355   1.0000000
N2   N   0.095248135277567   0.904753592196434   0.110976068431864   1.0000000
N2   N   0.094946593616884   0.047375977610436   0.111015525285785   1.0000000
N2   N   0.095051914655754   0.190350242413857   0.110978124600131   1.0000000
N2   N   0.095057810225333   0.333225015538058   0.110994102935267   1.0000000
N2   N   0.094956942276346   0.476134357190431   0.111004973985358   1.0000000
N2   N   0.095252201306646   0.619090426377908   0.111005960042594   1.0000000
N2   N   0.095352520301767   0.761979994839086   0.110979896597296   1.0000000
N2   N   0.238021626655916   0.904649068418229   0.110979894846298   1.0000000
N2   N   0.237799101489925   0.047210294203162   0.111024253126353   1.0000000
N2   N   0.237169109024005   0.189539737967193   0.111019536234623   1.0000000
N2   N   0.237882606124597   0.333211373043449   0.110989274510524   1.0000000
N2   N   0.237184333256020   0.476189171631779   0.110992058156180   1.0000000
N2   N   0.237813240028398   0.619170600575505   0.111037502195051   1.0000000
N2   N   0.238027843979755   0.761973822548245   0.111016195272051   1.0000000
N2   N   0.380911205949091   0.904749439324352   0.111005962832590   1.0000000
N2   N   0.380821772533969   0.047215754811289   0.111035279294377   1.0000000
N2   N   0.380479941112717   0.189549884547599   0.111046600229808   1.0000000
N2   N   0.379235181881205   0.331181556854472   0.111011114310722   1.0000000
N2   N   0.379247449433066   0.476631467838687   0.111003616158307   1.0000000
N2   N   0.380492355354110   0.619509438129893   0.110999109616950   1.0000000
N2   N   0.380831201825496   0.762188750053600   0.111037505723052   1.0000000
N2   N   0.523867435937562   0.905045120595654   0.111004981646351   1.0000000
N2   N   0.523862453097034   0.047387313259589   0.110973008679331   1.0000000
N2   N   0.523796170114240   0.189556365810656   0.111019416915264   1.0000000
N2   N   0.523353107935568   0.331194768477076   0.111002026445113   1.0000000
N2   N   0.523370017998310   0.620754066329937   0.111003614761309   1.0000000
N2   N   0.523812472117222   0.762817678205981   0.110992065920181   1.0000000
N2   N   0.666776702499942   0.904944002175663   0.110994104010268   1.0000000
N2   N   0.666755664294983   0.047659039706266   0.110996672634553   1.0000000
N2   N   0.666752093765461   0.190384150552289   0.111017551086369   1.0000000
N2   N   0.666762522697176   0.333239093732822   0.111000414998155   1.0000000
N2   N   0.668807023918930   0.476648643786428   0.111002025890108   1.0000000
N2   N   0.668820322321525   0.620766542847805   0.111011107858724   1.0000000
N2   N   0.666790237573556   0.762119004353397   0.110989273885524   1.0000000
N2   N   0.809651425698142   0.904949792594246   0.110978135801134   1.0000000
N2   N   0.809572484064117   0.047668039729421   0.111005657964019   1.0000000
N2   N   0.809557743429418   0.190443953714583   0.111027316888480   1.0000000
N2   N   0.809617399273707   0.333249563080542   0.111017546132372   1.0000000
N2   N   0.810444956322346   0.476205516014757   0.111019406033266   1.0000000
N2   N   0.810451873463396   0.619521835852283   0.111046599909808   1.0000000
N2   N   0.810462020192811   0.762832618671990   0.111019553903619   1.0000000


