data_1
_audit_creation_method   'vasp2cif'
_cell_length_a    17.52789999999977
_cell_length_b    17.52789999999977
_cell_length_c    15.0
_cell_angle_alpha    90.0
_cell_angle_beta    90.0
_cell_angle_gamma    119.99999999999916

_symmetry_space_group_name_H-M    'P 1'
loop_
_atom_site_label
_atom_site_type_symbol
_atom_site_fract_x
_atom_site_fract_y
_atom_site_fract_z
_atom_site_occupancy
B2   B   0.904538244908984   0.952238366315652   0.111011327919687   1.0000000
B2   B   0.904667742443826   0.095283802830252   0.111047905781911   1.0000000
B2   B   0.904639571567301   0.238161959669174   0.111049572671462   1.0000000
B2   B   0.904429053750682   0.380998363441620   0.110992504211855   1.0000000
B2   B   0.905513050541612   0.524066784182541   0.111025882197954   1.0000000
B2   B   0.904405374503676   0.666082026946819   0.111057722658660   1.0000000
B2   B   0.904879295887867   0.809614650563169   0.111047176475936   1.0000000
B2   B   0.047581234764756   0.952348796870027   0.111011397416558   1.0000000
B2   B   0.047490086963705   0.095191845440227   0.111015408459522   1.0000000
B2   B   0.047749474081068   0.238253803542759   0.111012768857137   1.0000000
B2   B   0.047644023539660   0.380931478897214   0.111014125363097   1.0000000
B2   B   0.047677876058338   0.523806235502820   0.111019955858014   1.0000000
B2   B   0.047776597061864   0.666737155659040   0.111026476364917   1.0000000
B2   B   0.047493712408706   0.809364762498176   0.111000347863910   1.0000000
B2   B   0.190580672817631   0.952401736454270   0.111000651620266   1.0000000
B2   B   0.190360813903612   0.095001224236503   0.111050119974409   1.0000000
B2   B   0.190540624219844   0.238158712869626   0.111011362748703   1.0000000
B2   B   0.191336222216675   0.381281890464110   0.110989423558459   1.0000000
B2   B   0.190202711735280   0.523791530210102   0.111068202404124   1.0000000
B2   B   0.190414690173557   0.666759408815782   0.111073001558349   1.0000000
B2   B   0.190460932353925   0.809529135943336   0.111000789644019   1.0000000
B2   B   0.333270081827192   0.952156494576567   0.111029156241100   1.0000000
B2   B   0.333882554750005   0.095208986721179   0.111070558045114   1.0000000
B2   B   0.333097309255631   0.236868247095262   0.111067029169287   1.0000000
B2   B   0.334631029322908   0.379808015824153   0.110910447512946   1.0000000
B2   B   0.333228918410464   0.525739679899700   0.110939494561076   1.0000000
B2   B   0.333188130994938   0.667704635982692   0.111107673973520   1.0000000
B2   B   0.333334486489660   0.809846815965569   0.111068505256061   1.0000000
B2   B   0.476243821142852   0.952139436349010   0.111020499994154   1.0000000
B2   B   0.475960909148612   0.094386897887342   0.111030472630035   1.0000000
B2   B   0.477467677291508   0.237903019395409   0.111058999068946   1.0000000
B2   B   0.475711916996539   0.381423881350653   0.111072626515670   1.0000000
B2   B   0.475377257202081   0.666110189433334   0.111053162562490   1.0000000
B2   B   0.476279035381686   0.809398856447559   0.111066336795197   1.0000000
B2   B   0.619066894728216   0.952409878816454   0.111011247185838   1.0000000
B2   B   0.618989741969723   0.095542034988421   0.110990852939054   1.0000000
B2   B   0.618105429197832   0.238080484340037   0.111018490633813   1.0000000
B2   B   0.619097515768879   0.524208851001425   0.111060911761890   1.0000000
B2   B   0.618899985096273   0.665366048091407   0.111026112750584   1.0000000
B2   B   0.618905124014369   0.809149539362998   0.111010936206823   1.0000000
B2   B   0.761751667870803   0.952271097724562   0.111006554220916   1.0000000
B2   B   0.761798084589093   0.095327289424817   0.111049073230248   1.0000000
B2   B   0.761687133069214   0.238269685996906   0.111042623307317   1.0000000
B2   B   0.761883358860689   0.381894789270201   0.111019586929787   1.0000000
B2   B   0.762045802895046   0.522514300653277   0.111052533882230   1.0000000
B2   B   0.762417465512082   0.667040238251579   0.111050796894485   1.0000000
B2   B   0.761501607599824   0.809096197667781   0.111010796584925   1.0000000
C2   C   0.384507448601742   0.478845683348613   0.110721259431045   1.0000000
C2   C   0.475834302458187   0.524746183356034   0.110944024394312   1.0000000
C2   C   0.523010985565760   0.478624178107501   0.111052725823247   1.0000000
C2   C   0.618778599759419   0.381103245511497   0.111075904273873   1.0000000
N2   N   0.952359586221474   0.904687816178944   0.111009612106972   1.0000000
N2   N   0.952084778426895   0.047457158835256   0.111007527870809   1.0000000
N2   N   0.952088712196337   0.190531898599447   0.111033211214494   1.0000000
N2   N   0.951772920472650   0.333348721710415   0.110986971924480   1.0000000
N2   N   0.952069809466193   0.476053637213514   0.110978452115469   1.0000000
N2   N   0.952248209710720   0.618816693703560   0.111024871013567   1.0000000
N2   N   0.952025240523967   0.761346552475802   0.111026976027034   1.0000000
N2   N   0.095215784307885   0.904627509410494   0.110971916445035   1.0000000
N2   N   0.095097511484270   0.047353325874673   0.111008742772830   1.0000000
N2   N   0.094911684303324   0.190158119960602   0.110995659887513   1.0000000
N2   N   0.095168618275856   0.333355793885974   0.110989576720246   1.0000000
N2   N   0.094654953573913   0.476137058534322   0.111021952425420   1.0000000
N2   N   0.094960143197628   0.619030990552412   0.111024643826562   1.0000000
N2   N   0.095137091178502   0.761846750687884   0.110978679056970   1.0000000
N2   N   0.238159141115014   0.904781345088885   0.110979119047771   1.0000000
N2   N   0.238585959791123   0.047682554981388   0.111032856007452   1.0000000
N2   N   0.237944455793488   0.189665229604703   0.111038993687270   1.0000000
N2   N   0.238074898382759   0.332588566292997   0.110962119516364   1.0000000
N2   N   0.237321665709771   0.476619504929459   0.111001754980518   1.0000000
N2   N   0.237740557706150   0.619434154435839   0.111085560727993   1.0000000
N2   N   0.238029151758142   0.762138908864046   0.111031517666756   1.0000000
N2   N   0.381126943862043   0.905093636034441   0.111022502884883   1.0000000
N2   N   0.381256779697226   0.047492445548937   0.111034217533959   1.0000000
N2   N   0.382675974165274   0.190694688649513   0.111059525726341   1.0000000
N2   N   0.380965549907744   0.330287960100421   0.111021530974747   1.0000000
N2   N   0.380739030476575   0.621094651105354   0.111052324502977   1.0000000
N2   N   0.381083615330759   0.762874339104079   0.111081507274922   1.0000000
N2   N   0.523983139283488   0.904907249480171   0.111016354755965   1.0000000
N2   N   0.523990342736438   0.047717065990325   0.110981467529848   1.0000000
N2   N   0.524098738803387   0.190289260569630   0.111013379664987   1.0000000
N2   N   0.529125077204518   0.335464333432312   0.111069785308700   1.0000000
N2   N   0.523199611840009   0.617855658310569   0.110998547286325   1.0000000
N2   N   0.523946150447161   0.761811673026969   0.111036209611385   1.0000000
N2   N   0.666603478974905   0.904755863877830   0.110984129727955   1.0000000
N2   N   0.666577410915483   0.048076870417049   0.110986061476614   1.0000000
N2   N   0.666425505792439   0.191641036101863   0.110995552032870   1.0000000
N2   N   0.664521972908035   0.335462184931967   0.111023331750456   1.0000000
N2   N   0.664841314529172   0.471074338731277   0.111058901974253   1.0000000
N2   N   0.668594246760806   0.619546323314308   0.111014077889906   1.0000000
N2   N   0.666271063774019   0.761167399115570   0.110996635924111   1.0000000
N2   N   0.809245225935547   0.904516906908713   0.110981642333994   1.0000000
N2   N   0.809289594765612   0.047698458332485   0.111031503468506   1.0000000
N2   N   0.809097596752800   0.190767843777801   0.111053070591252   1.0000000
N2   N   0.808252385897038   0.333533392180111   0.110998926164039   1.0000000
N2   N   0.809654926045204   0.475975951817247   0.111014955299069   1.0000000
N2   N   0.808620631565634   0.617417858484885   0.111049479142762   1.0000000
N2   N   0.809910402651827   0.762015630933352   0.111028147742712   1.0000000


