data_1
_audit_creation_method   'vasp2cif'
_cell_length_a    17.52789999999977
_cell_length_b    17.52789999999977
_cell_length_c    15.0
_cell_angle_alpha    90.0
_cell_angle_beta    90.0
_cell_angle_gamma    119.99999999999916

_symmetry_space_group_name_H-M    'P 1'
loop_
_atom_site_label
_atom_site_type_symbol
_atom_site_fract_x
_atom_site_fract_y
_atom_site_fract_z
_atom_site_occupancy
B2   B   0.905806509097933   0.952589715911825   0.108014662613767   1.0000000
B2   B   0.904628620738706   0.094671758917758   0.107931613267034   1.0000000
B2   B   0.903802724388322   0.237105816905159   0.106656661401620   1.0000000
B2   B   0.903839369789581   0.380199347928065   0.106259223835486   1.0000000
B2   B   0.904760770042443   0.523571758836336   0.107057022616627   1.0000000
B2   B   0.906025443836396   0.666914852400454   0.108045120626472   1.0000000
B2   B   0.906484646015501   0.810054323329909   0.106821153148235   1.0000000
B2   B   0.048682342215429   0.952628296923253   0.108842883328645   1.0000000
B2   B   0.047918185870550   0.095005229896322   0.108508469122748   1.0000000
B2   B   0.046472272911364   0.236951286597193   0.106739753902992   1.0000000
B2   B   0.045772900653288   0.379839635575176   0.105794823828998   1.0000000
B2   B   0.046120859487556   0.523227079891298   0.106703467221752   1.0000000
B2   B   0.047791180566098   0.666542652527222   0.108111669136213   1.0000000
B2   B   0.048688423012858   0.809709600662824   0.108901219434679   1.0000000
B2   B   0.191260477393431   0.952388236138373   0.109917856151699   1.0000000
B2   B   0.191108328248211   0.095365582425849   0.110179235166340   1.0000000
B2   B   0.189944555542147   0.237582066535680   0.110531375686118   1.0000000
B2   B   0.187538048442849   0.379336352344176   0.110856418617445   1.0000000
B2   B   0.186696121607089   0.522732737958485   0.113770076369314   1.0000000
B2   B   0.189527552152490   0.665897151569920   0.113216421067198   1.0000000
B2   B   0.190960862736333   0.809209721643943   0.111285015221142   1.0000000
B2   B   0.333673480110835   0.951722193017331   0.112104088041285   1.0000000
B2   B   0.333804333375651   0.095207643587511   0.111473473768483   1.0000000
B2   B   0.333600599206165   0.238432220730175   0.115245422120955   1.0000000
B2   B   0.331339565863798   0.379776874579572   0.119784792295766   1.0000000
B2   B   0.324403436073330   0.524006067652683   0.133370737369793   1.0000000
B2   B   0.330987387566918   0.662640355726925   0.134015486403157   1.0000000
B2   B   0.333182132161948   0.807886893620127   0.118654010186975   1.0000000
B2   B   0.475983289834390   0.951702267286566   0.115041994518022   1.0000000
B2   B   0.476266351287112   0.094862774668204   0.111472600052059   1.0000000
B2   B   0.476422825863590   0.238097067339774   0.113472414950936   1.0000000
B2   B   0.476453972906296   0.380898330224026   0.122287210141181   1.0000000
B2   B   0.474437033890143   0.807873601245784   0.122220188185004   1.0000000
B2   B   0.618757109534576   0.951455352743776   0.111980311352113   1.0000000
B2   B   0.618750161386845   0.094469829779218   0.111024670083560   1.0000000
B2   B   0.618940802968322   0.237591045492156   0.110672386358408   1.0000000
B2   B   0.619611073684454   0.380777985646098   0.112441373059340   1.0000000
B2   B   0.622823658654730   0.524791951612275   0.110929140089514   1.0000000
B2   B   0.625289529868821   0.669369858553609   0.081623702677753   1.0000000
B2   B   0.620649736104681   0.809157318351701   0.104174209362343   1.0000000
B2   B   0.762560398212906   0.952358560701705   0.107102584807113   1.0000000
B2   B   0.761426565766359   0.094432347817003   0.108911801353344   1.0000000
B2   B   0.761345933462057   0.237321246759514   0.108518475593321   1.0000000
B2   B   0.761801084631830   0.380474058026256   0.108491220045704   1.0000000
B2   B   0.763357876927493   0.523954162759119   0.107781287226448   1.0000000
B2   B   0.764562396909757   0.667461387030947   0.103950822337354   1.0000000
B2   B   0.764334371663529   0.810631106235557   0.100824641438057   1.0000000
N2   N   0.953578817438379   0.905088950774205   0.108110494118423   1.0000000
N2   N   0.952878286686054   0.047568898645132   0.108469256234646   1.0000000
N2   N   0.951589448001505   0.189588944345909   0.106885233119294   1.0000000
N2   N   0.950889587594930   0.332178901810794   0.105565186681234   1.0000000
N2   N   0.951232037516823   0.475399263588782   0.106060311814530   1.0000000
N2   N   0.952647041194665   0.618819500432794   0.107660881991091   1.0000000
N2   N   0.953518257806344   0.762099940157213   0.108264480932091   1.0000000
N2   N   0.096121267809246   0.904953201297491   0.109155948501670   1.0000000
N2   N   0.095998374235978   0.047820645117623   0.109069423782251   1.0000000
N2   N   0.094973930356345   0.190036693873117   0.108059341801074   1.0000000
N2   N   0.093021956241535   0.331682637261132   0.106098017031036   1.0000000
N2   N   0.092284180870162   0.474813968278885   0.106874199295939   1.0000000
N2   N   0.094317465491567   0.618429757393645   0.108020192254773   1.0000000
N2   N   0.095700307006656   0.761809654788280   0.109172691204911   1.0000000
N2   N   0.238518083980617   0.904592619572016   0.110852765827681   1.0000000
N2   N   0.238716815852350   0.047808184518206   0.110312021212618   1.0000000
N2   N   0.238531938381361   0.190817931575782   0.111738398187007   1.0000000
N2   N   0.236772531385120   0.332650539157994   0.112771581752031   1.0000000
N2   N   0.231731143103195   0.473180930892044   0.116186118449348   1.0000000
N2   N   0.235266808317499   0.617551125290889   0.118510485867238   1.0000000
N2   N   0.237798627023394   0.761252454410388   0.114566022338758   1.0000000
N2   N   0.380803556935080   0.903775323202531   0.114990076785944   1.0000000
N2   N   0.381163444366708   0.047386766952648   0.111224067273558   1.0000000
N2   N   0.381283284432684   0.190895134921444   0.113529792235886   1.0000000
N2   N   0.381221981587572   0.334378149017475   0.120899965166837   1.0000000
N2   N   0.371790521829363   0.474337075796239   0.126919586499240   1.0000000
N2   N   0.369061783661467   0.611753217827290   0.153694465562719   1.0000000
N2   N   0.379539647290999   0.759617770829848   0.126717194158701   1.0000000
N2   N   0.523605203251864   0.904438663763104   0.117172761038481   1.0000000
N2   N   0.523655031808403   0.047194255474659   0.112121323103601   1.0000000
N2   N   0.523781881063105   0.190402953643632   0.111367000888500   1.0000000
N2   N   0.524215434198651   0.333768987395854   0.115858214877689   1.0000000
N2   N   0.528916633146500   0.476255889470926   0.127393352173368   1.0000000
N2   N   0.530575879739583   0.624348424729579   0.057868752120736   1.0000000
N2   N   0.530107846607965   0.771433050840919   0.120646581693818   1.0000000
N2   N   0.667787586452324   0.905110064789250   0.107337181376475   1.0000000
N2   N   0.666375886248412   0.046938725495949   0.110634291527883   1.0000000
N2   N   0.666257406943280   0.189862757010791   0.109908044822236   1.0000000
N2   N   0.666586167336484   0.332948486739040   0.110513588126629   1.0000000
N2   N   0.668233014185189   0.476091844507860   0.109483681776381   1.0000000
N2   N   0.669332218647483   0.619604319830167   0.099797132646120   1.0000000
N2   N   0.669779520457203   0.763065564938437   0.091236876040971   1.0000000
N2   N   0.810893822758884   0.905214032099655   0.106508372040544   1.0000000
N2   N   0.809638950210363   0.047326365487269   0.108297353152460   1.0000000
N2   N   0.808799984144889   0.189636872739604   0.107998294985849   1.0000000
N2   N   0.808796826520717   0.332566535696200   0.107595084701547   1.0000000
N2   N   0.809721940625691   0.475776520395937   0.107692074304581   1.0000000
N2   N   0.810926391111673   0.619164664997330   0.107714821824714   1.0000000
N2   N   0.811398924273909   0.762423836589774   0.103283707073292   1.0000000
Se2   Se   0.484959675115783   0.550678965640469   0.146415970363064   1.0000000


