data_1
_audit_creation_method   'vasp2cif'
_cell_length_a    17.52789999999977
_cell_length_b    17.52789999999977
_cell_length_c    15.0
_cell_angle_alpha    90.0
_cell_angle_beta    90.0
_cell_angle_gamma    119.99999999999916

_symmetry_space_group_name_H-M    'P 1'
loop_
_atom_site_label
_atom_site_type_symbol
_atom_site_fract_x
_atom_site_fract_y
_atom_site_fract_z
_atom_site_occupancy
B2   B   0.902249066519414   0.948607223351584   0.108353443089108   1.0000000
B2   B   0.904951516962766   0.092541939982514   0.108328494016707   1.0000000
B2   B   0.906103568255637   0.235611874580837   0.107818089654671   1.0000000
B2   B   0.906174718100503   0.378580476560956   0.107751265475801   1.0000000
B2   B   0.904723964972269   0.521610005251895   0.107586965015568   1.0000000
B2   B   0.902584758849517   0.664054866569671   0.106733216641115   1.0000000
B2   B   0.900591617179422   0.805391949941052   0.107214223089823   1.0000000
B2   B   0.046974321548136   0.952437427696469   0.107259257652588   1.0000000
B2   B   0.049583821057398   0.096225038231738   0.107959086618983   1.0000000
B2   B   0.050257716950147   0.238201113180180   0.107959710111917   1.0000000
B2   B   0.049245615916930   0.380120408652188   0.107201146444504   1.0000000
B2   B   0.047025197110205   0.522922362737546   0.106415922845519   1.0000000
B2   B   0.045594052406188   0.666111058062848   0.106247074874351   1.0000000
B2   B   0.045662767792595   0.809124313844368   0.106414892744636   1.0000000
B2   B   0.190239848578675   0.954121917779097   0.107903239334558   1.0000000
B2   B   0.193929238159368   0.099587862041418   0.108652867570601   1.0000000
B2   B   0.197445601010797   0.244410967783748   0.109114714733366   1.0000000
B2   B   0.194411833882544   0.383406194277434   0.109257503110816   1.0000000
B2   B   0.189547867152881   0.524594658351721   0.107357744072285   1.0000000
B2   B   0.187248689989985   0.667355607026645   0.106405662399985   1.0000000
B2   B   0.188629588574022   0.810513542828942   0.106990290746753   1.0000000
B2   B   0.332694034782674   0.953853144325889   0.109428603962168   1.0000000
B2   B   0.335056373971222   0.098218804833996   0.110738412841259   1.0000000
B2   B   0.342086718381055   0.247475048631577   0.110999507171017   1.0000000
B2   B   0.347435567188248   0.395197294166736   0.111820791716072   1.0000000
B2   B   0.332986034576405   0.528630508732642   0.111076130843617   1.0000000
B2   B   0.327783426055449   0.669146047715038   0.107083244229038   1.0000000
B2   B   0.330955030221971   0.811022414280512   0.108030226358556   1.0000000
B2   B   0.475184009609171   0.951425603358391   0.110270901957719   1.0000000
B2   B   0.476817981592904   0.094625303436446   0.112150027127347   1.0000000
B2   B   0.479258676916969   0.238736998375860   0.114860379420489   1.0000000
B2   B   0.494816631304640   0.393550579153948   0.114071915714545   1.0000000
B2   B   0.489640944366897   0.582850405363402   0.118285563821206   1.0000000
B2   B   0.466465626933232   0.664066307104809   0.112168732284637   1.0000000
B2   B   0.473018897412894   0.808193469864278   0.110116912171184   1.0000000
B2   B   0.617477200053663   0.947915456524278   0.110784765383867   1.0000000
B2   B   0.619280419561094   0.091742550728632   0.111076798381730   1.0000000
B2   B   0.620662170981034   0.234363147988776   0.113407072158265   1.0000000
B2   B   0.622976720435581   0.375889846318638   0.115021520541141   1.0000000
B2   B   0.608532575736628   0.504850036057367   0.111440318837375   1.0000000
B2   B   0.607474945557852   0.648514214067835   0.112896260862508   1.0000000
B2   B   0.613682348896711   0.801538155309974   0.112426105908601   1.0000000
B2   B   0.759363063956711   0.946821992921987   0.110205052017585   1.0000000
B2   B   0.761906609545550   0.091268135327396   0.109411951176280   1.0000000
B2   B   0.763177609986326   0.234569389178521   0.109927827198220   1.0000000
B2   B   0.764132588564298   0.377527963210020   0.110955857303410   1.0000000
B2   B   0.761780158223492   0.519519369480553   0.110056846731189   1.0000000
B2   B   0.755619292607403   0.657570942657391   0.108058923916404   1.0000000
B2   B   0.754482947838392   0.800246634391966   0.110288582617049   1.0000000
N2   N   0.950319023169952   0.901848740989315   0.107398964539937   1.0000000
N2   N   0.952703231233706   0.045396222982358   0.108117247606166   1.0000000
N2   N   0.954103356103698   0.188530064624446   0.107749171672377   1.0000000
N2   N   0.953895995710054   0.331197706498104   0.107227272727394   1.0000000
N2   N   0.952283452679883   0.474077008979470   0.107015313135114   1.0000000
N2   N   0.950663892971478   0.617106588925920   0.106633982498084   1.0000000
N2   N   0.949815227647156   0.759594080005784   0.106332733878686   1.0000000
N2   N   0.094444231752918   0.905033747541724   0.106927337832839   1.0000000
N2   N   0.097275613472499   0.049126661506290   0.107758323033757   1.0000000
N2   N   0.099969035565835   0.192920744191739   0.108247823419982   1.0000000
N2   N   0.098318578357404   0.333731866323685   0.107992559523813   1.0000000
N2   N   0.094816177125454   0.475484980640525   0.106629996844743   1.0000000
N2   N   0.092707222713037   0.618442984255398   0.106144479339222   1.0000000
N2   N   0.093242974769543   0.761767436700227   0.106305038456377   1.0000000
N2   N   0.237212309074935   0.906106819644951   0.108040761242551   1.0000000
N2   N   0.239596978409811   0.050256016135035   0.108925865682380   1.0000000
N2   N   0.245025087555509   0.196987483557599   0.109432400780786   1.0000000
N2   N   0.248096607520371   0.341543313468300   0.110037554627415   1.0000000
N2   N   0.238502747263488   0.478059817741207   0.109471148260477   1.0000000
N2   N   0.233789892079124   0.619715435681165   0.106619021727753   1.0000000
N2   N   0.235663286684507   0.762820261879842   0.106883681354626   1.0000000
N2   N   0.379774190563912   0.905884596854424   0.109295517058228   1.0000000
N2   N   0.381455523771082   0.049178497190312   0.110994846589910   1.0000000
N2   N   0.384496711652404   0.194381075364828   0.112303584983061   1.0000000
N2   N   0.395610136971052   0.346970691977030   0.111312998082547   1.0000000
N2   N   0.394302089788440   0.494110327350357   0.114931581306927   1.0000000
N2   N   0.373467910122990   0.622130710455897   0.107839529686470   1.0000000
N2   N   0.377840189164013   0.763515084209195   0.108128631676139   1.0000000
N2   N   0.522168443425832   0.903068715478329   0.110411359869396   1.0000000
N2   N   0.523888162530584   0.046318597267149   0.111271377868496   1.0000000
N2   N   0.525523966526777   0.189521006949394   0.114027629465999   1.0000000
N2   N   0.529005914774244   0.333419465244323   0.117218925944111   1.0000000
N2   N   0.518658577128757   0.758554859637259   0.112009022477853   1.0000000
N2   N   0.663617625874953   0.898197003264603   0.111361231701647   1.0000000
N2   N   0.666364122757456   0.043501974371101   0.110298078624758   1.0000000
N2   N   0.667857341272670   0.186763314367956   0.111552715162093   1.0000000
N2   N   0.669568740773180   0.328901672863904   0.113843382373599   1.0000000
N2   N   0.667246571635467   0.469737370091496   0.113037231000968   1.0000000
N2   N   0.658040007368760   0.603993092819898   0.109197568581504   1.0000000
N2   N   0.656888342319647   0.748265437916575   0.112837789148897   1.0000000
N2   N   0.805401194062776   0.897744136401005   0.109690447296274   1.0000000
N2   N   0.808916781092556   0.043124532920334   0.109160385168668   1.0000000
N2   N   0.810535090769780   0.186927473154685   0.108731725216621   1.0000000
N2   N   0.811240445521933   0.329970566087318   0.109406582494031   1.0000000
N2   N   0.809995325477291   0.472729044578648   0.109513059805775   1.0000000
N2   N   0.807185417433845   0.614357813060364   0.107650386826751   1.0000000
N2   N   0.803576757740455   0.754159093590468   0.108214685145629   1.0000000
Sn2   Sn   0.513278888508940   0.521000868205376   0.248829159041004   1.0000000


