data_1
_audit_creation_method   'vasp2cif'
_cell_length_a    17.52789999999977
_cell_length_b    17.52789999999977
_cell_length_c    15.0
_cell_angle_alpha    90.0
_cell_angle_beta    90.0
_cell_angle_gamma    119.99999999999916

_symmetry_space_group_name_H-M    'P 1'
loop_
_atom_site_label
_atom_site_type_symbol
_atom_site_fract_x
_atom_site_fract_y
_atom_site_fract_z
_atom_site_occupancy
Al2   Al   0.545264751102721   0.454758356786911   0.275970671985782   1.0000000
B2   B   0.905328790723871   0.953711139090451   0.103000560178963   1.0000000
B2   B   0.904023079479323   0.095978456100916   0.103412373268299   1.0000000
B2   B   0.903571323901950   0.238764843317760   0.104239476836994   1.0000000
B2   B   0.903701449157403   0.381613901702785   0.105892075281936   1.0000000
B2   B   0.904518889036481   0.524508958498210   0.108073931237747   1.0000000
B2   B   0.905599184900730   0.667562184254251   0.108377944035041   1.0000000
B2   B   0.906099838003712   0.810976536224189   0.104491474592315   1.0000000
B2   B   0.047589297163491   0.952401107559922   0.102722989536147   1.0000000
B2   B   0.046296615602309   0.094677245157840   0.102995586732945   1.0000000
B2   B   0.045844842519031   0.237835851246814   0.103943592595591   1.0000000
B2   B   0.046219346954629   0.381057524805072   0.104276731595512   1.0000000
B2   B   0.047177684152984   0.523993870304288   0.104468215700486   1.0000000
B2   B   0.048033692825911   0.666836104719160   0.104676014607598   1.0000000
B2   B   0.048101212790542   0.809698311354786   0.103711262142816   1.0000000
B2   B   0.190305878615384   0.951905605544113   0.103763779809768   1.0000000
B2   B   0.189019858558957   0.093902137255149   0.104537537647595   1.0000000
B2   B   0.186917868491633   0.235458291379771   0.107220343476385   1.0000000
B2   B   0.187954066131773   0.379857535430965   0.107641484168404   1.0000000
B2   B   0.189852926596700   0.523354255566012   0.105612719723226   1.0000000
B2   B   0.190960111637672   0.666360085325039   0.104278897629619   1.0000000
B2   B   0.190783020425791   0.809216085784470   0.103868256806763   1.0000000
B2   B   0.333169604475458   0.951971979197914   0.104800652255662   1.0000000
B2   B   0.332439042359041   0.094401026251582   0.108574684523354   1.0000000
B2   B   0.329790474060822   0.234951520645168   0.116015799104765   1.0000000
B2   B   0.326024306920068   0.375925407703782   0.120263624766629   1.0000000
B2   B   0.332325356982942   0.521613179477441   0.113159397674856   1.0000000
B2   B   0.334300413434768   0.665704274330714   0.106814378083094   1.0000000
B2   B   0.333653788199818   0.809053004876020   0.104358933778293   1.0000000
B2   B   0.476016065989505   0.952830997662346   0.104624926992997   1.0000000
B2   B   0.475494338551883   0.095481533899111   0.108315767554863   1.0000000
B2   B   0.474584001370225   0.237442341119916   0.119775992591542   1.0000000
B2   B   0.468538743482085   0.374095525778721   0.140745544012759   1.0000000
B2   B   0.478374464213687   0.667659698423243   0.113323165099409   1.0000000
B2   B   0.476657420171868   0.810147653895783   0.105731549397127   1.0000000
B2   B   0.618948655125571   0.953794652698498   0.104403739599498   1.0000000
B2   B   0.618383562568717   0.096305227174256   0.106025678979194   1.0000000
B2   B   0.618054294561240   0.239039416998317   0.112714845527392   1.0000000
B2   B   0.618188447107464   0.381821527856232   0.126881804826148   1.0000000
B2   B   0.625940714614465   0.531454935897727   0.140805859503907   1.0000000
B2   B   0.624063418716467   0.673970922734824   0.120532823185314   1.0000000
B2   B   0.620135706474102   0.812040737408729   0.107837844885765   1.0000000
B2   B   0.762158980934387   0.954151894494281   0.104016657601051   1.0000000
B2   B   0.761235626088009   0.096443080932389   0.104299720268258   1.0000000
B2   B   0.760865149613892   0.239140987977386   0.106916970818524   1.0000000
B2   B   0.760965310742549   0.381949462196715   0.112595878545889   1.0000000
B2   B   0.762560846689418   0.525415650440358   0.119562210722968   1.0000000
B2   B   0.765041631966376   0.670204757785363   0.115961662646143   1.0000000
B2   B   0.764525993282803   0.813068348344260   0.107341482655642   1.0000000
Ga2   Ga   0.492291403472201   0.507704210807063   0.112053671164219   1.0000000
N2   N   0.952847672880210   0.905761224050629   0.102749828466450   1.0000000
N2   N   0.951692304661577   0.048278625563348   0.103050513590531   1.0000000
N2   N   0.950915133913036   0.190914300984872   0.103608033527749   1.0000000
N2   N   0.950976328885893   0.333831688666848   0.104392826332898   1.0000000
N2   N   0.951702320720251   0.476712908524227   0.105633531634176   1.0000000
N2   N   0.952645089696034   0.619560015390988   0.106687846282760   1.0000000
N2   N   0.953037069198132   0.762576060616567   0.104640694133621   1.0000000
N2   N   0.095267040231057   0.904735952166206   0.103175595311953   1.0000000
N2   N   0.094245323377301   0.047147415331132   0.102772086771850   1.0000000
N2   N   0.092574919093153   0.189181776845835   0.103742093349382   1.0000000
N2   N   0.092989442088552   0.332852636479274   0.104646522617109   1.0000000
N2   N   0.094351533800207   0.476188654126396   0.104229887872947   1.0000000
N2   N   0.095414273659998   0.619131716472204   0.104124287486002   1.0000000
N2   N   0.095562656529140   0.761941252096562   0.103999076300859   1.0000000
N2   N   0.238064420211351   0.904453749670878   0.104047131470885   1.0000000
N2   N   0.237436702423025   0.046968624122521   0.104754513028496   1.0000000
N2   N   0.235444175357351   0.188423235591557   0.107400505671507   1.0000000
N2   N   0.232545239987061   0.329420065915556   0.110921600608599   1.0000000
N2   N   0.236412561245544   0.475153555171722   0.108102264534381   1.0000000
N2   N   0.238502826701179   0.618678864267743   0.105360530308218   1.0000000
N2   N   0.238378603967277   0.761639887268473   0.103948303126394   1.0000000
N2   N   0.380874602788602   0.904589042087039   0.104260843239302   1.0000000
N2   N   0.380434629487929   0.047353979844928   0.106875521328888   1.0000000
N2   N   0.379559260300937   0.189436734711961   0.115308026623140   1.0000000
N2   N   0.375037317036423   0.328758450346385   0.126871109558685   1.0000000
N2   N   0.372448622958416   0.468429523145247   0.120539824965292   1.0000000
N2   N   0.382037573990061   0.617961702063226   0.110505740024386   1.0000000
N2   N   0.381330762488325   0.761504019342659   0.105456340683155   1.0000000
N2   N   0.523835020817693   0.905652738522441   0.104359224085535   1.0000000
N2   N   0.523289104041687   0.048304488722955   0.105831481265554   1.0000000
N2   N   0.522837952745220   0.190999049223649   0.113079458379005   1.0000000
N2   N   0.522326307928786   0.333355467085866   0.131112640540586   1.0000000
N2   N   0.531569772682154   0.627544617696067   0.120874673958817   1.0000000
N2   N   0.524838923175679   0.763582876378770   0.108247371782859   1.0000000
N2   N   0.667170194689263   0.907015516160470   0.104763334046943   1.0000000
N2   N   0.666168445625843   0.049018791072882   0.104513146373421   1.0000000
N2   N   0.665682945933000   0.191672630914127   0.108031802419362   1.0000000
N2   N   0.665483250652265   0.334516183439938   0.116972549935277   1.0000000
N2   N   0.666672783842138   0.477679991843189   0.131063236140783   1.0000000
N2   N   0.671255665584759   0.624963888693145   0.126958480590318   1.0000000
N2   N   0.670566830212564   0.767457237449221   0.111209064206271   1.0000000
N2   N   0.810801829264911   0.907422380047699   0.103788266306474   1.0000000
N2   N   0.809072996097214   0.049072536436356   0.103653447491070   1.0000000
N2   N   0.808438826084036   0.191551009614436   0.104818438244060   1.0000000
N2   N   0.808335216532015   0.334324566244199   0.107978587075607   1.0000000
N2   N   0.809004430657197   0.477164106874859   0.112792404963748   1.0000000
N2   N   0.810549721500081   0.620431580875646   0.115058534489364   1.0000000
N2   N   0.811563749604616   0.764556203719096   0.107417592500148   1.0000000


