data_1
_audit_creation_method   'vasp2cif'
_cell_length_a    14.93631414619966
_cell_length_b    14.936314146199727
_cell_length_c    13.341276283792837
_cell_angle_alpha    90.0
_cell_angle_beta    90.0
_cell_angle_gamma    119.99999999999984

_symmetry_space_group_name_H-M    'P 1'
loop_
_atom_site_label
_atom_site_type_symbol
_atom_site_fract_x
_atom_site_fract_y
_atom_site_fract_z
_atom_site_occupancy
O2   O   0.444444444444443   0.388888888888886   0.375000000000000   1.0000000
N2   N   0.111114279302272   0.055549301329729   0.125159436459967   1.0000000
N2   N   0.611104445683448   0.555556137006988   0.125386333818954   1.0000000
N2   N   0.444435022027456   0.055549301329729   0.125159436459967   1.0000000
N2   N   0.944451882024339   0.555562877560607   0.125113945763006   1.0000000
N2   N   0.777777777777779   0.055555555555557   0.125099922341759   1.0000000
N2   N   0.111111111111114   0.722222222222221   0.624902115797085   1.0000000
N2   N   0.444435022027456   0.722219054031063   0.624840563540033   1.0000000
N2   N   0.277777196326348   0.222228887649888   0.624613666181046   1.0000000
N2   N   0.777784032003607   0.722219054031063   0.624840563540033   1.0000000
N2   N   0.611114607362598   0.222218725970737   0.624841391148714   1.0000000
N2   N   0.944446514644830   0.222230071125362   0.624883842188035   1.0000000
N2   N   0.277770455772729   0.722222337797068   0.125113945763006   1.0000000
N2   N   0.111104118608146   0.222218725970737   0.125158608851286   1.0000000
N2   N   0.444451691323540   0.222228887649888   0.125386333818954   1.0000000
N2   N   0.611114607362598   0.722229214725189   0.125158608851286   1.0000000
N2   N   0.944451882024339   0.722222337797068   0.125113945763006   1.0000000
N2   N   0.777783556480532   0.222230071125362   0.125116157811965   1.0000000
N2   N   0.111110995536267   0.888881451308990   0.624886054236994   1.0000000
N2   N   0.444431182299565   0.888882257816447   0.624881341089000   1.0000000
N2   N   0.277777196326348   0.388881642009789   0.624613666181046   1.0000000
N2   N   0.611104445683448   0.388881642009789   0.624613666181046   1.0000000
N2   N   0.777783556480532   0.888886818688499   0.624883842188035   1.0000000
N2   N   0.944451075516882   0.388902151033764   0.624881341089000   1.0000000
N2   N   0.111114279302272   0.388898311305872   0.125159436459967   1.0000000
N2   N   0.277770455772729   0.888881451308990   0.125113945763006   1.0000000
N2   N   0.611103262207974   0.888886818688499   0.125116157811965   1.0000000
N2   N   0.444444444444443   0.388888888888886   0.125744300519088   1.0000000
N2   N   0.944451075516882   0.888882257816447   0.125118658910999   1.0000000
N2   N   0.777784032003607   0.388898311305872   0.125159436459967   1.0000000
N2   N   0.277774933906452   0.555558399426884   0.624822987302746   1.0000000
N2   N   0.111114279302272   0.055549301329729   0.624840563540033   1.0000000
N2   N   0.611104445683448   0.555556137006988   0.624613666181046   1.0000000
N2   N   0.444435022027456   0.055549301329729   0.624840563540033   1.0000000
N2   N   0.944451882024339   0.555562877560607   0.624886054236994   1.0000000
N2   N   0.111110995536267   0.555562877560607   0.125113945763006   1.0000000
N2   N   0.777777777777779   0.055555555555557   0.624900077658241   1.0000000
N2   N   0.277774933906452   0.055549867812904   0.125177012697254   1.0000000
N2   N   0.444451691323540   0.555556137006988   0.125386333818954   1.0000000
N2   N   0.777783465520432   0.555558399426884   0.125177012697254   1.0000000
N2   N   0.611103262207974   0.055549776852804   0.125116157811965   1.0000000
N2   N   0.444451691323540   0.555556137006988   0.624613666181046   1.0000000
N2   N   0.944446514644830   0.055549776852804   0.125116157811965   1.0000000
N2   N   0.277770455772729   0.722222337797068   0.624886054236994   1.0000000
N2   N   0.111104118608146   0.222218725970737   0.624841391148714   1.0000000
N2   N   0.444451691323540   0.222228887649888   0.624613666181046   1.0000000
N2   N   0.611114607362598   0.722229214725189   0.624841391148714   1.0000000
N2   N   0.944451882024339   0.722222337797068   0.624886054236994   1.0000000
N2   N   0.777783556480532   0.222230071125362   0.624883842188035   1.0000000
N2   N   0.111111111111114   0.722222222222221   0.125097884202915   1.0000000
N2   N   0.444435022027456   0.722219054031063   0.125159436459967   1.0000000
N2   N   0.277777196326348   0.222228887649888   0.125386333818954   1.0000000
N2   N   0.777784032003607   0.722219054031063   0.125159436459967   1.0000000
N2   N   0.611114607362598   0.222218725970737   0.125158608851286   1.0000000
N2   N   0.944446514644830   0.222230071125362   0.125116157811965   1.0000000
N2   N   0.111114279302272   0.388898311305872   0.624840563540033   1.0000000
N2   N   0.277770455772729   0.888881451308990   0.624886054236994   1.0000000
N2   N   0.611103262207974   0.888886818688499   0.624883842188035   1.0000000
N2   N   0.444444444444443   0.388888888888886   0.624255699480911   1.0000000
N2   N   0.944451075516882   0.888882257816447   0.624881341089000   1.0000000
N2   N   0.111110995536267   0.888881451308990   0.125113945763006   1.0000000
N2   N   0.777784032003607   0.388898311305872   0.624840563540033   1.0000000
N2   N   0.444431182299565   0.888882257816447   0.125118658910999   1.0000000
N2   N   0.277777196326348   0.388881642009789   0.125386333818954   1.0000000
N2   N   0.277774933906452   0.555558399426884   0.125177012697254   1.0000000
N2   N   0.611104445683448   0.388881642009789   0.125386333818954   1.0000000
N2   N   0.777783556480532   0.888886818688499   0.125116157811965   1.0000000
N2   N   0.944451075516882   0.388902151033764   0.125118658910999   1.0000000
N2   N   0.111110995536267   0.555562877560607   0.624886054236994   1.0000000
N2   N   0.277774933906452   0.055549867812904   0.624822987302746   1.0000000
N2   N   0.777783465520432   0.555558399426884   0.624822987302746   1.0000000
N2   N   0.611103262207974   0.055549776852804   0.624883842188035   1.0000000
N2   N   0.944446514644830   0.055549776852804   0.624883842188035   1.0000000
N2   N   0.055430444065530   0.111024188034821   0.375000000000000   1.0000000
N2   N   0.555994125756537   0.611988251513075   0.375000000000000   1.0000000
N2   N   0.389037254786778   0.112288118511756   0.375000000000000   1.0000000
N2   N   0.888415858037756   0.610874595685549   0.375000000000000   1.0000000
N2   N   0.722230426208109   0.111102907125227   0.375000000000000   1.0000000
N2   N   0.055553992186228   0.777779341147107   0.875000000000000   1.0000000
N2   N   0.388893942989262   0.777780015880441   0.875000000000000   1.0000000
N2   N   0.222222057980045   0.277777695656691   0.875000000000000   1.0000000
N2   N   0.722222222726451   0.777779991846776   0.875000000000000   1.0000000
N2   N   0.555555637676645   0.277777695656691   0.875000000000000   1.0000000
N2   N   0.888888148621787   0.277776297243581   0.875000000000000   1.0000000
N2   N   0.222324951798178   0.777829142565757   0.375000000000000   1.0000000
N2   N   0.055430444065530   0.277739589364044   0.375000000000000   1.0000000
N2   N   0.388056893300057   0.276113786600120   0.375000000000000   1.0000000
N2   N   0.555593743969292   0.777902889267806   0.375000000000000   1.0000000
N2   N   0.888522988501276   0.777501407776377   0.375000000000000   1.0000000
N2   N   0.722309145298514   0.277739589364044   0.375000000000000   1.0000000
N2   N   0.055553317452895   0.944447260442157   0.875000000000000   1.0000000
N2   N   0.388893942989262   0.944447260442157   0.875000000000000   1.0000000
N2   N   0.222223204718259   0.444440206456029   0.875000000000000   1.0000000
N2   N   0.555551730113726   0.444442531723527   0.875000000000000   1.0000000
N2   N   0.722222463468767   0.944444926937533   0.875000000000000   1.0000000
N2   N   0.888886072891171   0.444439390344066   0.875000000000000   1.0000000
N2   N   0.055831925556959   0.444354914058235   0.375000000000000   1.0000000
N2   N   0.222458737647787   0.944917475295572   0.375000000000000   1.0000000
N2   N   0.555515842989837   0.944424588161583   0.375000000000000   1.0000000
N2   N   0.388056893300057   0.445276440033272   0.375000000000000   1.0000000
N2   N   0.888908745171745   0.944424588161583   0.375000000000000   1.0000000
N2   N   0.721045214821579   0.444296078546550   0.375000000000000   1.0000000
N2   N   0.222224297765334   0.611109035568001   0.875000000000000   1.0000000
N2   N   0.055553341486560   0.111111110606885   0.875000000000000   1.0000000
N2   N   0.555555637676645   0.611111275353290   0.875000000000000   1.0000000
N2   N   0.388893126877300   0.111116331595566   0.875000000000000   1.0000000
N2   N   0.888884737802660   0.611109035568001   0.875000000000000   1.0000000
N2   N   0.055504190767579   0.611008381535158   0.375000000000000   1.0000000
N2   N   0.722222463468767   0.111110869864569   0.875000000000000   1.0000000
N2   N   0.223250863724970   0.112288118511756   0.375000000000000   1.0000000
N2   N   0.389037254786778   0.610082469608365   0.375000000000000   1.0000000
N2   N   0.721045214821579   0.610082469608365   0.375000000000000   1.0000000
N2   N   0.555593743969292   0.111024188034821   0.375000000000000   1.0000000
N2   N   0.388893126877300   0.611110128615077   0.875000000000000   1.0000000
N2   N   0.888872480917111   0.111102907125227   0.375000000000000   1.0000000
N2   N   0.222225348960879   0.777779341147107   0.875000000000000   1.0000000
N2   N   0.055553341486560   0.277775564213010   0.875000000000000   1.0000000
N2   N   0.388890801609801   0.277781603219609   0.875000000000000   1.0000000
N2   N   0.555557769120325   0.777779991846776   0.875000000000000   1.0000000
N2   N   0.888886072891171   0.777780015880441   0.875000000000000   1.0000000
N2   N   0.722222222726451   0.277775564213010   0.875000000000000   1.0000000
N2   N   0.055504190767579   0.777829142565757   0.375000000000000   1.0000000
N2   N   0.388978419275093   0.777501407776377   0.375000000000000   1.0000000
N2   N   0.221345081820261   0.277339207576798   0.375000000000000   1.0000000
N2   N   0.722309145298514   0.777902889267806   0.375000000000000   1.0000000
N2   N   0.555994125756537   0.277339207576798   0.375000000000000   1.0000000
N2   N   0.888908745171745   0.277817490343498   0.375000000000000   1.0000000
N2   N   0.055553317452895   0.444439390344066   0.875000000000000   1.0000000
N2   N   0.222224297765334   0.944448595530669   0.875000000000000   1.0000000
N2   N   0.555557036089755   0.944445184711542   0.875000000000000   1.0000000
N2   N   0.388890801609801   0.444442531723527   0.875000000000000   1.0000000
N2   N   0.888888148621787   0.944445184711542   0.875000000000000   1.0000000
N2   N   0.055831925556959   0.944810344832053   0.375000000000000   1.0000000
N2   N   0.722217001737769   0.444440206456029   0.875000000000000   1.0000000
N2   N   0.388978419275093   0.944810344832053   0.375000000000000   1.0000000
N2   N   0.223250863724970   0.444296078546550   0.375000000000000   1.0000000
N2   N   0.222458737647787   0.610874595685549   0.375000000000000   1.0000000
N2   N   0.557219546733215   0.445276440033272   0.375000000000000   1.0000000
N2   N   0.722230426208109   0.944460852416217   0.375000000000000   1.0000000
N2   N   0.888522988501276   0.444354914058235   0.375000000000000   1.0000000
N2   N   0.055553992186228   0.611107984372456   0.875000000000000   1.0000000
N2   N   0.222223204718259   0.111116331595566   0.875000000000000   1.0000000
N2   N   0.722217001737769   0.611110128615077   0.875000000000000   1.0000000
N2   N   0.555557769120325   0.111111110606885   0.875000000000000   1.0000000
N2   N   0.888888406395796   0.111110869864569   0.875000000000000   1.0000000
B2   B   0.111042314190306   0.055735243133520   0.375000000000000   1.0000000
B2   B   0.610794189786051   0.557543063425350   0.375000000000000   1.0000000
B2   B   0.444692928943214   0.055735243133520   0.375000000000000   1.0000000
B2   B   0.944377627061754   0.555510536987345   0.375000000000000   1.0000000
B2   B   0.777777777777779   0.055555555555557   0.375000000000000   1.0000000
B2   B   0.111111111111114   0.722222222222221   0.875000000000000   1.0000000
B2   B   0.444453246094509   0.722250573715410   0.875000000000000   1.0000000
B2   B   0.277749400059277   0.222198859366819   0.875000000000000   1.0000000
B2   B   0.777797327620902   0.722250573715410   0.875000000000000   1.0000000
B2   B   0.611131124752945   0.222202208580391   0.875000000000000   1.0000000
B2   B   0.944423796867692   0.222209412645367   0.875000000000000   1.0000000
B2   B   0.277822796345991   0.722200423407745   0.375000000000000   1.0000000
B2   B   0.109557229845453   0.221445281589391   0.375000000000000   1.0000000
B2   B   0.446748873639298   0.222539143547284   0.375000000000000   1.0000000
B2   B   0.611888051743945   0.723776103487883   0.375000000000000   1.0000000
B2   B   0.944377627061754   0.722200423407745   0.375000000000000   1.0000000
B2   B   0.777973611744965   0.222068711764445   0.375000000000000   1.0000000
B2   B   0.111101951296895   0.888879701562457   0.875000000000000   1.0000000
B2   B   0.444454475264315   0.888893904298822   0.875000000000000   1.0000000
B2   B   0.277749400059277   0.388883874025787   0.875000000000000   1.0000000
B2   B   0.611134473966517   0.388883874025787   0.875000000000000   1.0000000
B2   B   0.777785615777675   0.888909536465636   0.875000000000000   1.0000000
B2   B   0.944439429034507   0.388878858069013   0.875000000000000   1.0000000
B2   B   0.111042314190306   0.388640404390114   0.375000000000000   1.0000000
B2   B   0.277822796345991   0.888955706271575   0.375000000000000   1.0000000
B2   B   0.611264621568891   0.889238233313849   0.375000000000000   1.0000000
B2   B   0.944414221682800   0.888919111650529   0.375000000000000   1.0000000
B2   B   0.777598090199815   0.388640404390114   0.375000000000000   1.0000000
B2   B   0.277765426970896   0.555567906362440   0.875000000000000   1.0000000
B2   B   0.111082759617925   0.055536005712434   0.875000000000000   1.0000000
B2   B   0.611134473966517   0.555583933274059   0.875000000000000   1.0000000
B2   B   0.444453246094509   0.055536005712434   0.875000000000000   1.0000000
B2   B   0.944453631770871   0.555555583067767   0.875000000000000   1.0000000
B2   B   0.111132909925591   0.555510536987345   0.375000000000000   1.0000000
B2   B   0.777777777777779   0.055555555555557   0.875000000000000   1.0000000
B2   B   0.277816306696673   0.055632613393345   0.375000000000000   1.0000000
B2   B   0.446748873639298   0.557543063425350   0.375000000000000   1.0000000
B2   B   0.777700719939991   0.555517026636663   0.375000000000000   1.0000000
B2   B   0.611264621568891   0.055359721588370   0.375000000000000   1.0000000
B2   B   0.444449459307542   0.555583933274059   0.875000000000000   1.0000000
B2   B   0.944095100019479   0.055359721588370   0.375000000000000   1.0000000
B2   B   0.277777750265569   0.722231382036440   0.875000000000000   1.0000000
B2   B   0.111071083827453   0.222202208580391   0.875000000000000   1.0000000
B2   B   0.444449459307542   0.222198859366819   0.875000000000000   1.0000000
B2   B   0.611131124752945   0.722262249505883   0.875000000000000   1.0000000
B2   B   0.944453631770871   0.722231382036440   0.875000000000000   1.0000000
B2   B   0.777785615777675   0.222209412645367   0.875000000000000   1.0000000
B2   B   0.111111111111114   0.722222222222221   0.375000000000000   1.0000000
B2   B   0.444692928943214   0.722291019143030   0.375000000000000   1.0000000
B2   B   0.275790269907986   0.222539143547284   0.375000000000000   1.0000000
B2   B   0.777598090199815   0.722291019143030   0.375000000000000   1.0000000
B2   B   0.611888051743945   0.221445281589391   0.375000000000000   1.0000000
B2   B   0.944095100019479   0.222068711764445   0.375000000000000   1.0000000
B2   B   0.111082759617925   0.388880087238820   0.875000000000000   1.0000000
B2   B   0.277777750265569   0.888879701562457   0.875000000000000   1.0000000
B2   B   0.611123920687969   0.888909536465636   0.875000000000000   1.0000000
B2   B   0.444444444444443   0.388888888888886   0.875000000000000   1.0000000
B2   B   0.944439429034507   0.888893904298822   0.875000000000000   1.0000000
B2   B   0.111132909925591   0.888955706271575   0.375000000000000   1.0000000
B2   B   0.777797327620902   0.388880087238820   0.875000000000000   1.0000000
B2   B   0.444504889967729   0.888919111650529   0.375000000000000   1.0000000
B2   B   0.275790269907986   0.386584459694030   0.375000000000000   1.0000000
B2   B   0.277816306696673   0.555517026636663   0.375000000000000   1.0000000
B2   B   0.610794189786051   0.386584459694030   0.375000000000000   1.0000000
B2   B   0.777973611744965   0.889238233313849   0.375000000000000   1.0000000
B2   B   0.944414221682800   0.388828443365600   0.375000000000000   1.0000000
B2   B   0.111101951296895   0.555555583067767   0.875000000000000   1.0000000
B2   B   0.277765426970896   0.055530853941792   0.875000000000000   1.0000000
B2   B   0.777802479391543   0.555567906362440   0.875000000000000   1.0000000
B2   B   0.611123920687969   0.055547717555661   0.875000000000000   1.0000000
B2   B   0.944423796867692   0.055547717555661   0.875000000000000   1.0000000
B2   B   0.055483731122801   0.111045212718146   0.124855632212820   1.0000000
B2   B   0.555614726548340   0.611229453096679   0.124753711342678   1.0000000
B2   B   0.388843276459810   0.110978442717041   0.124827162186252   1.0000000
B2   B   0.888985838170282   0.611159585751812   0.124880227332093   1.0000000
B2   B   0.722232724085639   0.111100609247697   0.124901674840241   1.0000000
B2   B   0.055571052928539   0.777762280404797   0.625091381692592   1.0000000
B2   B   0.388848820937682   0.777803644066641   0.625108250004364   1.0000000
B2   B   0.222103880236656   0.277718606784996   0.625246288657322   1.0000000
B2   B   0.722288120615189   0.777849602210535   0.625144367787180   1.0000000
B2   B   0.555614726548340   0.277718606784996   0.625246288657322   1.0000000
B2   B   0.888895588685030   0.277791177370069   0.625097375791141   1.0000000
B2   B   0.222191227476257   0.777762280404797   0.124908618307408   1.0000000
B2   B   0.055483731122801   0.277771851737990   0.124855632212820   1.0000000
B2   B   0.388851885962290   0.277703771924586   0.124807197036563   1.0000000
B2   B   0.555561481595346   0.777849602210535   0.124855632212820   1.0000000
B2   B   0.888954823128952   0.777803644066641   0.124891749995636   1.0000000
B2   B   0.722288120615189   0.277771851737990   0.124855632212820   1.0000000
B2   B   0.055529689266695   0.944378510204377   0.625108250004364   1.0000000
B2   B   0.388848820937682   0.944378510204377   0.625108250004364   1.0000000
B2   B   0.222135166257224   0.444490056873519   0.625172837813748   1.0000000
B2   B   0.555629561408749   0.444481447371039   0.625192802963437   1.0000000
B2   B   0.722232724085639   0.944465448171278   0.625098325159759   1.0000000
B2   B   0.888954823128952   0.444484512395646   0.625108250004364   1.0000000
B2   B   0.055529689266695   0.444484512395646   0.124891749995636   1.0000000
B2   B   0.222173747581524   0.944347495163047   0.124880227332093   1.0000000
B2   B   0.555542155963267   0.944437744648298   0.124902624208859   1.0000000
B2   B   0.388851885962290   0.444481447371039   0.124807197036563   1.0000000
B2   B   0.888895588685030   0.944437744648298   0.124902624208859   1.0000000
B2   B   0.722354890616295   0.444490056873519   0.124827162186252   1.0000000
B2   B   0.222173747581524   0.611159585751812   0.625119772667907   1.0000000
B2   B   0.055483731122801   0.111045212718146   0.625144367787180   1.0000000
B2   B   0.555614726548340   0.611229453096679   0.625246288657322   1.0000000
B2   B   0.388843276459810   0.110978442717041   0.625172837813748   1.0000000
B2   B   0.888985838170282   0.611159585751812   0.625119772667907   1.0000000
B2   B   0.055571052928539   0.611142105857078   0.124908618307408   1.0000000
B2   B   0.722232724085639   0.111100609247697   0.625098325159759   1.0000000
B2   B   0.222135166257224   0.110978442717041   0.124827162186252   1.0000000
B2   B   0.388843276459810   0.611198167076111   0.124827162186252   1.0000000
B2   B   0.722354890616295   0.611198167076111   0.124827162186252   1.0000000
B2   B   0.555561481595346   0.111045212718146   0.124855632212820   1.0000000
B2   B   0.388843276459810   0.611198167076111   0.625172837813748   1.0000000
B2   B   0.888867885162051   0.111100609247697   0.124901674840241   1.0000000
B2   B   0.222191227476257   0.777762280404797   0.625091381692592   1.0000000
B2   B   0.055483731122801   0.277771851737990   0.625144367787180   1.0000000
B2   B   0.388851885962290   0.277703771924586   0.625192802963437   1.0000000
B2   B   0.555561481595346   0.777849602210535   0.625144367787180   1.0000000
B2   B   0.888954823128952   0.777803644066641   0.625108250004364   1.0000000
B2   B   0.722288120615189   0.277771851737990   0.625144367787180   1.0000000
B2   B   0.055571052928539   0.777762280404797   0.124908618307408   1.0000000
B2   B   0.388848820937682   0.777803644066641   0.124891749995636   1.0000000
B2   B   0.222103880236656   0.277718606784996   0.124753711342678   1.0000000
B2   B   0.722288120615189   0.777849602210535   0.124855632212820   1.0000000
B2   B   0.555614726548340   0.277718606784996   0.124753711342678   1.0000000
B2   B   0.888895588685030   0.277791177370069   0.124902624208859   1.0000000
B2   B   0.055529689266695   0.444484512395646   0.625108250004364   1.0000000
B2   B   0.222173747581524   0.944347495163047   0.625119772667907   1.0000000
B2   B   0.555542155963267   0.944437744648298   0.625097375791141   1.0000000
B2   B   0.388851885962290   0.444481447371039   0.625192802963437   1.0000000
B2   B   0.888895588685030   0.944437744648298   0.625097375791141   1.0000000
B2   B   0.055529689266695   0.944378510204377   0.124891749995636   1.0000000
B2   B   0.722354890616295   0.444490056873519   0.625172837813748   1.0000000
B2   B   0.388848820937682   0.944378510204377   0.124891749995636   1.0000000
B2   B   0.222135166257224   0.444490056873519   0.124827162186252   1.0000000
B2   B   0.222173747581524   0.611159585751812   0.124880227332093   1.0000000
B2   B   0.555629561408749   0.444481447371039   0.124807197036563   1.0000000
B2   B   0.722232724085639   0.944465448171278   0.124901674840241   1.0000000
B2   B   0.888954823128952   0.444484512395646   0.124891749995636   1.0000000
B2   B   0.055571052928539   0.611142105857078   0.625091381692592   1.0000000
B2   B   0.222135166257224   0.110978442717041   0.625172837813748   1.0000000
B2   B   0.722354890616295   0.611198167076111   0.625172837813748   1.0000000
B2   B   0.555561481595346   0.111045212718146   0.625144367787180   1.0000000
B2   B   0.888867885162051   0.111100609247697   0.625098325159759   1.0000000


