data_1
_audit_creation_method   'vasp2cif'
_cell_length_a    17.52789999999977
_cell_length_b    17.52789999999977
_cell_length_c    15.0
_cell_angle_alpha    90.0
_cell_angle_beta    90.0
_cell_angle_gamma    119.99999999999916

_symmetry_space_group_name_H-M    'P 1'
loop_
_atom_site_label
_atom_site_type_symbol
_atom_site_fract_x
_atom_site_fract_y
_atom_site_fract_z
_atom_site_occupancy
B2   B   0.904726724789517   0.952411244861567   0.118449451892541   1.0000000
B2   B   0.904746956162079   0.095255880130886   0.117983442907072   1.0000000
B2   B   0.904756756540112   0.238064392375914   0.117984346336711   1.0000000
B2   B   0.904721723588619   0.380885580529869   0.118541904113047   1.0000000
B2   B   0.905187568506469   0.523842143959776   0.118351955705962   1.0000000
B2   B   0.905215042809700   0.666889820355874   0.116921958340430   1.0000000
B2   B   0.905195800723944   0.809918482779845   0.118261122876078   1.0000000
B2   B   0.047619367648097   0.952383927088536   0.119355753617611   1.0000000
B2   B   0.047592583880008   0.095276627657338   0.118464269001491   1.0000000
B2   B   0.047590914480036   0.238064186140066   0.117245639399979   1.0000000
B2   B   0.047594100754035   0.380885640232894   0.118521849707648   1.0000000
B2   B   0.047595251114042   0.523797077266727   0.119382468792862   1.0000000
B2   B   0.047755700587879   0.666735144962091   0.119048305042039   1.0000000
B2   B   0.047754718917521   0.809607745109552   0.119041253485220   1.0000000
B2   B   0.190394421023722   0.952246630848069   0.119043398557231   1.0000000
B2   B   0.190086198653337   0.094807396753807   0.118281955587399   1.0000000
B2   B   0.190490456846398   0.238137481683603   0.113581617164874   1.0000000
B2   B   0.190491066231390   0.380921044364783   0.113592815300358   1.0000000
B2   B   0.190065405854798   0.523855699162441   0.118285526283856   1.0000000
B2   B   0.190389946622256   0.666737050453502   0.119039189104507   1.0000000
B2   B   0.190466174095709   0.809535225905416   0.118755981347139   1.0000000
B2   B   0.333264908905515   0.952244348626512   0.119022615375286   1.0000000
B2   B   0.333111629582800   0.094784608370520   0.116903671798647   1.0000000
B2   B   0.331918378009324   0.236446113360157   0.106945094008755   1.0000000
B2   B   0.332881681702700   0.380725311012553   0.092745841475439   1.0000000
B2   B   0.331910798446874   0.524034624595458   0.106929887210153   1.0000000
B2   B   0.333106589162040   0.666895461286875   0.116933027933953   1.0000000
B2   B   0.333264098296599   0.809611683274363   0.119024360955274   1.0000000
B2   B   0.476202983760265   0.952405268833841   0.119339571041563   1.0000000
B2   B   0.476156714230814   0.094809586290993   0.118302387984711   1.0000000
B2   B   0.475949025164551   0.236445426052039   0.106955640435646   1.0000000
B2   B   0.468676232307258   0.365888580387844   0.060474455421324   1.0000000
B2   B   0.468689043728512   0.531315701951194   0.060426739914075   1.0000000
B2   B   0.475965463837515   0.668089419444280   0.106929792185917   1.0000000
B2   B   0.476145678642373   0.809937449222254   0.118269986176385   1.0000000
B2   B   0.619114847091113   0.952407899141972   0.118490999931926   1.0000000
B2   B   0.619113404743027   0.095278494646468   0.118496842856035   1.0000000
B2   B   0.619066877464506   0.238137494167384   0.113586198593785   1.0000000
B2   B   0.619285944857931   0.380716422671733   0.092794368235512   1.0000000
B2   B   0.634113575608216   0.531325753953960   0.060492749472186   1.0000000
B2   B   0.619277098781508   0.667121801659719   0.092749382564548   1.0000000
B2   B   0.619080601447388   0.809512003675574   0.113582662974865   1.0000000
B2   B   0.761938087971422   0.952412447296546   0.117230629648741   1.0000000
B2   B   0.761936369540499   0.095244686993747   0.117970480503606   1.0000000
B2   B   0.761925263771622   0.238076332940102   0.117223714029979   1.0000000
B2   B   0.761862223036874   0.380933857228883   0.113615967581900   1.0000000
B2   B   0.763552483374600   0.524051242320676   0.106992568530642   1.0000000
B2   B   0.763554551817297   0.668084289964307   0.106952369712177   1.0000000
B2   B   0.761865368116961   0.809514343430392   0.113565192785389   1.0000000
Si2   Si   0.523846278421309   0.476164433673565   0.993836296191923   1.0000000
N2   N   0.952577893603392   0.905025656543190   0.119175782422597   1.0000000
N2   N   0.952346549760446   0.047656846864708   0.118565301848835   1.0000000
N2   N   0.952343060999902   0.190452018120261   0.117815529699634   1.0000000
N2   N   0.952348948223212   0.333262170550680   0.118623320188421   1.0000000
N2   N   0.952565651292504   0.476118399160705   0.119276373106747   1.0000000
N2   N   0.952756165405237   0.619148955073028   0.118742241505246   1.0000000
N2   N   0.952755654484763   0.762176551227609   0.118702706552274   1.0000000
N2   N   0.095246906422384   0.904753672947558   0.119256058946328   1.0000000
N2   N   0.094977340821477   0.047424729792462   0.119197397781346   1.0000000
N2   N   0.095186814378072   0.190491665617396   0.117130996519188   1.0000000
N2   N   0.095183744193161   0.333252187063533   0.117161807109622   1.0000000
N2   N   0.094965563018514   0.476123195852559   0.119226006904286   1.0000000
N2   N   0.095239243802141   0.619067455544358   0.119247307627605   1.0000000
N2   N   0.095341109076025   0.761964375277849   0.118809800119440   1.0000000
N2   N   0.238035037193409   0.904658644980921   0.118802732252443   1.0000000
N2   N   0.237824633583382   0.047245284603690   0.118711577819191   1.0000000
N2   N   0.237244659167855   0.189659584806400   0.115346606123120   1.0000000
N2   N   0.238312747508911   0.333443328436395   0.108061973646333   1.0000000
N2   N   0.237234173681229   0.476160299209476   0.115339777775131   1.0000000
N2   N   0.237814972676867   0.619159175048485   0.118725827375010   1.0000000
N2   N   0.238031360360432   0.761968120980776   0.118795378064233   1.0000000
N2   N   0.380931926027219   0.904760110463536   0.119217177631634   1.0000000
N2   N   0.380851464395484   0.047242904486029   0.118705592813667   1.0000000
N2   N   0.380447209106473   0.189468058466024   0.111291163420449   1.0000000
N2   N   0.378052139527990   0.329594967738092   0.088506671281065   1.0000000
N2   N   0.378054623110128   0.477021408246917   0.088482496149443   1.0000000
N2   N   0.380446969244022   0.619554171214124   0.111282938714934   1.0000000
N2   N   0.380841380832429   0.762185978554861   0.118715494465092   1.0000000
N2   N   0.523878392907742   0.905035235085693   0.119193308462442   1.0000000
N2   N   0.523882078770901   0.047433765456231   0.119218998659086   1.0000000
N2   N   0.523839257074228   0.189660684940644   0.115359529675499   1.0000000
N2   N   0.522987847886368   0.329592446407013   0.088533675494154   1.0000000
N2   N   0.522980991904635   0.621948230302422   0.088486513038545   1.0000000
N2   N   0.523841600049895   0.762768652644775   0.115332775700418   1.0000000
N2   N   0.666750201550068   0.904818847641849   0.117145003907786   1.0000000
N2   N   0.666739569764061   0.047653300099639   0.118587360267528   1.0000000
N2   N   0.666742371037930   0.190498019420518   0.117130448291026   1.0000000
N2   N   0.666563032052144   0.333438691038633   0.108072262352410   1.0000000
N2   N   0.670408908125010   0.477014986000481   0.088555501977505   1.0000000
N2   N   0.670406681512058   0.621950442540473   0.088521739702673   1.0000000
N2   N   0.666560359539155   0.761692042591745   0.108055628145219   1.0000000
N2   N   0.809511048017729   0.904816943335502   0.117110567331137   1.0000000
N2   N   0.809550512900752   0.047659700027390   0.117808599297206   1.0000000
N2   N   0.809551948131729   0.190449990479958   0.117796784499140   1.0000000
N2   N   0.809502608172744   0.333259010811077   0.117161524384348   1.0000000
N2   N   0.810337894894533   0.476162900598173   0.115409396421274   1.0000000
N2   N   0.810533124704799   0.619555818164606   0.111317635364111   1.0000000
N2   N   0.810344413746367   0.762760732738122   0.115329009067757   1.0000000


