data_1
_audit_creation_method   'vasp2cif'
_cell_length_a    14.93631414619966
_cell_length_b    14.936314146199727
_cell_length_c    13.341276283792837
_cell_angle_alpha    90.0
_cell_angle_beta    90.0
_cell_angle_gamma    119.99999999999984

_symmetry_space_group_name_H-M    'P 1'
loop_
_atom_site_label
_atom_site_type_symbol
_atom_site_fract_x
_atom_site_fract_y
_atom_site_fract_z
_atom_site_occupancy
Ge2   Ge   0.555555555555557   0.444444444444443   0.375000000000000   1.0000000
N2   N   0.111099272604978   0.055548041486989   0.125026482146070   1.0000000
N2   N   0.611150724729830   0.555634782792968   0.123844056950699   1.0000000
N2   N   0.444449254711001   0.055561031603628   0.125429238745219   1.0000000
N2   N   0.944438968396405   0.555550745288846   0.125429238745219   1.0000000
N2   N   0.777784112145304   0.055558722739331   0.124818451739035   1.0000000
N2   N   0.111109351264772   0.722221342299015   0.625059974117575   1.0000000
N2   N   0.444449254711001   0.722221556440741   0.624570761254752   1.0000000
N2   N   0.277745863661466   0.222206056037667   0.624549987446693   1.0000000
N2   N   0.777793943962245   0.722254136338609   0.624549987446693   1.0000000
N2   N   0.611126859042979   0.222206056037667   0.624549987446693   1.0000000
N2   N   0.944441277260705   0.222215887854703   0.625181548260984   1.0000000
N2   N   0.277778657700931   0.722221342299015   0.124940025882387   1.0000000
N2   N   0.111082596959862   0.222207965146578   0.125057492296164   1.0000000
N2   N   0.444452534339389   0.222238402012120   0.125590124610089   1.0000000
N2   N   0.611126859042979   0.722254136338609   0.125450012553236   1.0000000
N2   N   0.944438968396405   0.722221556440741   0.125429238745219   1.0000000
N2   N   0.777792034853372   0.222207965146578   0.125057492296164   1.0000000
N2   N   0.111111190768647   0.888888809231474   0.625106213956384   1.0000000
N2   N   0.444444285129405   0.888888809231474   0.625106213956384   1.0000000
N2   N   0.277745863661466   0.388873140957067   0.624549987446693   1.0000000
N2   N   0.611150724729830   0.388849275270180   0.626155943049275   1.0000000
N2   N   0.777792034853372   0.888917403040142   0.624942507703862   1.0000000
N2   N   0.944451958513047   0.388884564451302   0.624973517853909   1.0000000
N2   N   0.111099272604978   0.388884564451302   0.125026482146070   1.0000000
N2   N   0.277778657700931   0.888890648735191   0.124940025882387   1.0000000
N2   N   0.611115435548690   0.888900727395034   0.125026482146070   1.0000000
N2   N   0.444365217207012   0.388849275270180   0.123844056950699   1.0000000
N2   N   0.944451958513047   0.888900727395034   0.125026482146070   1.0000000
N2   N   0.777793943962245   0.388873140957067   0.125450012553236   1.0000000
N2   N   0.277778443559279   0.555550745288846   0.624570761254752   1.0000000
N2   N   0.111099272604978   0.055548041486989   0.624973517853909   1.0000000
N2   N   0.611150724729830   0.555634782792968   0.626155943049275   1.0000000
N2   N   0.444449254711001   0.055561031603628   0.624570761254752   1.0000000
N2   N   0.944438968396405   0.555550745288846   0.624570761254752   1.0000000
N2   N   0.111111190768647   0.555555714870701   0.124893786043614   1.0000000
N2   N   0.777784112145304   0.055558722739331   0.625181548260984   1.0000000
N2   N   0.277778443559279   0.055561031603628   0.125429238745219   1.0000000
N2   N   0.444452534339389   0.555547465660602   0.125590124610089   1.0000000
N2   N   0.777761597987887   0.555547465660602   0.125590124610089   1.0000000
N2   N   0.611115435548690   0.055548041486989   0.125026482146070   1.0000000
N2   N   0.444452534339389   0.555547465660602   0.624409875389862   1.0000000
N2   N   0.944441277260705   0.055558722739331   0.124818451739035   1.0000000
N2   N   0.277778657700931   0.722221342299015   0.625059974117575   1.0000000
N2   N   0.111082596959862   0.222207965146578   0.624942507703862   1.0000000
N2   N   0.444452534339389   0.222238402012120   0.624409875389862   1.0000000
N2   N   0.611126859042979   0.722254136338609   0.624549987446693   1.0000000
N2   N   0.944438968396405   0.722221556440741   0.624570761254752   1.0000000
N2   N   0.777792034853372   0.222207965146578   0.624942507703862   1.0000000
N2   N   0.111109351264772   0.722221342299015   0.124940025882387   1.0000000
N2   N   0.444449254711001   0.722221556440741   0.125429238745219   1.0000000
N2   N   0.277745863661466   0.222206056037667   0.125450012553236   1.0000000
N2   N   0.777793943962245   0.722254136338609   0.125450012553236   1.0000000
N2   N   0.611126859042979   0.222206056037667   0.125450012553236   1.0000000
N2   N   0.944441277260705   0.222215887854703   0.124818451739035   1.0000000
N2   N   0.111099272604978   0.388884564451302   0.624973517853909   1.0000000
N2   N   0.277778657700931   0.888890648735191   0.625059974117575   1.0000000
N2   N   0.611115435548690   0.888900727395034   0.624973517853909   1.0000000
N2   N   0.444365217207012   0.388849275270180   0.626155943049275   1.0000000
N2   N   0.944451958513047   0.888900727395034   0.624973517853909   1.0000000
N2   N   0.111111190768647   0.888888809231474   0.124893786043614   1.0000000
N2   N   0.777793943962245   0.388873140957067   0.624549987446693   1.0000000
N2   N   0.444444285129405   0.888888809231474   0.124893786043614   1.0000000
N2   N   0.277745863661466   0.388873140957067   0.125450012553236   1.0000000
N2   N   0.277778443559279   0.555550745288846   0.125429238745219   1.0000000
N2   N   0.611150724729830   0.388849275270180   0.123844056950699   1.0000000
N2   N   0.777792034853372   0.888917403040142   0.125057492296164   1.0000000
N2   N   0.944451958513047   0.388884564451302   0.125026482146070   1.0000000
N2   N   0.111111190768647   0.555555714870701   0.625106213956384   1.0000000
N2   N   0.277778443559279   0.055561031603628   0.624570761254752   1.0000000
N2   N   0.777761597987887   0.555547465660602   0.624409875389862   1.0000000
N2   N   0.611115435548690   0.055548041486989   0.624973517853909   1.0000000
N2   N   0.944441277260705   0.055558722739331   0.625181548260984   1.0000000
N2   N   0.054309225845058   0.110284877826313   0.375000000000000   1.0000000
N2   N   0.556150573607446   0.621596815124226   0.375000000000000   1.0000000
N2   N   0.387731445537358   0.108796224408084   0.375000000000000   1.0000000
N2   N   0.891203775591941   0.612268554462623   0.375000000000000   1.0000000
N2   N   0.722642318648008   0.110284877826313   0.375000000000000   1.0000000
N2   N   0.055558939775520   0.777779628011957   0.875000000000000   1.0000000
N2   N   0.388887354903036   0.777779628011957   0.875000000000000   1.0000000
N2   N   0.222223413245953   0.277778373289612   0.875000000000000   1.0000000
N2   N   0.722221626710304   0.777776586754113   0.875000000000000   1.0000000
N2   N   0.555549438828391   0.277769349600896   0.875000000000000   1.0000000
N2   N   0.888890614074899   0.277780534138497   0.875000000000000   1.0000000
N2   N   0.222222222222221   0.777777777777779   0.375000000000000   1.0000000
N2   N   0.054309225845058   0.277357681352078   0.375000000000000   1.0000000
N2   N   0.378403184875822   0.267887091816605   0.375000000000000   1.0000000
N2   N   0.555184877045827   0.781928783552957   0.375000000000000   1.0000000
N2   N   0.893410573173738   0.781928783552957   0.375000000000000   1.0000000
N2   N   0.724235141825309   0.275764858174716   0.375000000000000   1.0000000
N2   N   0.055557017325039   0.944442982674989   0.875000000000000   1.0000000
N2   N   0.388887354903036   0.944441060224408   0.875000000000000   1.0000000
N2   N   0.222220978944475   0.444448375129797   0.875000000000000   1.0000000
N2   N   0.555555555555557   0.444444444444443   0.875000000000000   1.0000000
N2   N   0.722219465861506   0.944443413269712   0.875000000000000   1.0000000
N2   N   0.888894062851961   0.444448375129797   0.875000000000000   1.0000000
N2   N   0.055770960277221   0.444875253887813   0.375000000000000   1.0000000
N2   N   0.221863744820545   0.943435354692026   0.375000000000000   1.0000000
N2   N   0.555124746112242   0.944229039722717   0.375000000000000   1.0000000
N2   N   0.378403184875822   0.443849426392538   0.375000000000000   1.0000000
N2   N   0.889715122173700   0.945690774154881   0.375000000000000   1.0000000
N2   N   0.732112908183353   0.443849426392538   0.375000000000000   1.0000000
N2   N   0.222220371988084   0.611112645097020   0.875000000000000   1.0000000
N2   N   0.055556586730325   0.111109385925173   0.875000000000000   1.0000000
N2   N   0.555549438828391   0.611113422560738   0.875000000000000   1.0000000
N2   N   0.388884446086061   0.111102225505455   0.875000000000000   1.0000000
N2   N   0.888897774494534   0.611115553913933   0.875000000000000   1.0000000
N2   N   0.056564645307911   0.611761723461724   0.375000000000000   1.0000000
N2   N   0.722219465861506   0.111109385925173   0.875000000000000   1.0000000
N2   N   0.218071216447036   0.106589426826244   0.375000000000000   1.0000000
N2   N   0.387731445537358   0.612268554462623   0.375000000000000   1.0000000
N2   N   0.732112908183353   0.621596815124226   0.375000000000000   1.0000000
N2   N   0.555184877045827   0.106589426826239   0.375000000000000   1.0000000
N2   N   0.388884446086061   0.611115553913933   0.875000000000000   1.0000000
N2   N   0.888888888888886   0.111111111111114   0.375000000000000   1.0000000
N2   N   0.222222222222221   0.777777777777779   0.875000000000000   1.0000000
N2   N   0.055556586730325   0.277780534138497   0.875000000000000   1.0000000
N2   N   0.388886577439266   0.277769349600896   0.875000000000000   1.0000000
N2   N   0.555551624870144   0.777779021055505   0.875000000000000   1.0000000
N2   N   0.888894062851961   0.777779021055505   0.875000000000000   1.0000000
N2   N   0.722221626710304   0.277778373289612   0.875000000000000   1.0000000
N2   N   0.056564645307911   0.778136255179527   0.375000000000000   1.0000000
N2   N   0.388238276538213   0.778136255179527   0.375000000000000   1.0000000
N2   N   0.218196383016065   0.275764858174716   0.375000000000000   1.0000000
N2   N   0.724235141825309   0.781803616983904   0.375000000000000   1.0000000
N2   N   0.556150573607446   0.267887091816605   0.375000000000000   1.0000000
N2   N   0.889715122173700   0.277357681352078   0.375000000000000   1.0000000
N2   N   0.055557017325039   0.444447367983420   0.875000000000000   1.0000000
N2   N   0.222220371988084   0.944441060224408   0.875000000000000   1.0000000
N2   N   0.555552632016570   0.944442982674989   0.875000000000000   1.0000000
N2   N   0.388886577439266   0.444450561171722   0.875000000000000   1.0000000
N2   N   0.888890614074899   0.944443413269712   0.875000000000000   1.0000000
N2   N   0.055770960277221   0.944229039722717   0.375000000000000   1.0000000
N2   N   0.722230650399134   0.444450561171722   0.875000000000000   1.0000000
N2   N   0.388238276538213   0.943435354692026   0.375000000000000   1.0000000
N2   N   0.218071216447036   0.444815122954116   0.375000000000000   1.0000000
N2   N   0.221863744820544   0.611761723461724   0.375000000000000   1.0000000
N2   N   0.722642318648008   0.945690774154881   0.375000000000000   1.0000000
N2   N   0.893410573173738   0.444815122954116   0.375000000000000   1.0000000
N2   N   0.055558939775520   0.611112645097020   0.875000000000000   1.0000000
N2   N   0.222220978944475   0.111105937148050   0.875000000000000   1.0000000
N2   N   0.722230650399134   0.611113422560738   0.875000000000000   1.0000000
N2   N   0.555551624870144   0.111105937148050   0.875000000000000   1.0000000
N2   N   0.888888888888886   0.111111111111114   0.875000000000000   1.0000000
B2   B   0.108740343065182   0.053732603599355   0.375000000000000   1.0000000
B2   B   0.624491034042681   0.582315401418546   0.375000000000000   1.0000000
B2   B   0.444024854217131   0.053764817446363   0.375000000000000   1.0000000
B2   B   0.946235182553675   0.555975145782895   0.375000000000000   1.0000000
B2   B   0.778343784318788   0.055838558826022   0.375000000000000   1.0000000
B2   B   0.111111486225504   0.722222409779438   0.875000000000000   1.0000000
B2   B   0.444443093496846   0.722219755299814   0.875000000000000   1.0000000
B2   B   0.277790121682974   0.222228161476947   0.875000000000000   1.0000000
B2   B   0.777771838523081   0.722209878317108   0.875000000000000   1.0000000
B2   B   0.611104706460604   0.222228161476947   0.875000000000000   1.0000000
B2   B   0.944445336810955   0.222224006955405   0.875000000000000   1.0000000
B2   B   0.277492163671188   0.722507836328780   0.375000000000000   1.0000000
B2   B   0.108440318431554   0.220886825882450   0.375000000000000   1.0000000
B2   B   0.442944153298287   0.219221639929901   0.375000000000000   1.0000000
B2   B   0.612471307872269   0.730234341010170   0.375000000000000   1.0000000
B2   B   0.946235182553675   0.723593370104025   0.375000000000000   1.0000000
B2   B   0.779113174117539   0.220886825882450   0.375000000000000   1.0000000
B2   B   0.111110960342011   0.888889039657983   0.875000000000000   1.0000000
B2   B   0.444444745982641   0.888889039657983   0.875000000000000   1.0000000
B2   B   0.277790121682974   0.388895293539312   0.875000000000000   1.0000000
B2   B   0.611104620903799   0.388895379096200   0.875000000000000   1.0000000
B2   B   0.777774499268637   0.888882331870538   0.875000000000000   1.0000000
B2   B   0.944443575880725   0.388890761309662   0.875000000000000   1.0000000
B2   B   0.108740343065182   0.388341072799094   0.375000000000000   1.0000000
B2   B   0.277492163671188   0.888317660675704   0.375000000000000   1.0000000
B2   B   0.611658927200815   0.891259656934796   0.375000000000000   1.0000000
B2   B   0.417684598581437   0.375508965957391   0.375000000000000   1.0000000
B2   B   0.946267396400756   0.891259656934796   0.375000000000000   1.0000000
B2   B   0.784429699804814   0.387528692127776   0.375000000000000   1.0000000
B2   B   0.277780244700121   0.555556906503263   0.875000000000000   1.0000000
B2   B   0.111113852095584   0.055556424119262   0.875000000000000   1.0000000
B2   B   0.611104620903799   0.555542575140929   0.875000000000000   1.0000000
B2   B   0.444443093496846   0.055556671530338   0.875000000000000   1.0000000
B2   B   0.944443328469625   0.555556906503263   0.875000000000000   1.0000000
B2   B   0.111256186729910   0.555845706793161   0.375000000000000   1.0000000
B2   B   0.777775993044592   0.055554663188961   0.875000000000000   1.0000000
B2   B   0.276406629895897   0.053764817446360   0.375000000000000   1.0000000
B2   B   0.442944153298287   0.557055846701775   0.375000000000000   1.0000000
B2   B   0.780778360070090   0.557055846701775   0.375000000000000   1.0000000
B2   B   0.611658927200815   0.053732603599355   0.375000000000000   1.0000000
B2   B   0.444448195117505   0.555551804882460   0.875000000000000   1.0000000
B2   B   0.944161441173961   0.055838558826022   0.375000000000000   1.0000000
B2   B   0.277777590220589   0.722222409779438   0.875000000000000   1.0000000
B2   B   0.111117668129518   0.222225500731443   0.875000000000000   1.0000000
B2   B   0.444448195117505   0.222229723568379   0.875000000000000   1.0000000
B2   B   0.611104706460604   0.722209878317108   0.875000000000000   1.0000000
B2   B   0.944443328469625   0.722219755299814   0.875000000000000   1.0000000
B2   B   0.777774499268637   0.222225500731443   0.875000000000000   1.0000000
B2   B   0.111682339324203   0.722507836328780   0.375000000000000   1.0000000
B2   B   0.444024854217131   0.723593370104025   0.375000000000000   1.0000000
B2   B   0.269765658989725   0.215570300195289   0.375000000000000   1.0000000
B2   B   0.784429699804814   0.730234341010170   0.375000000000000   1.0000000
B2   B   0.612471307872269   0.215570300195289   0.375000000000000   1.0000000
B2   B   0.944161441173961   0.221656215681309   0.375000000000000   1.0000000
B2   B   0.111113852095584   0.388890761309662   0.875000000000000   1.0000000
B2   B   0.277777590220589   0.888888513774507   0.875000000000000   1.0000000
B2   B   0.611109238690291   0.888886147904448   0.875000000000000   1.0000000
B2   B   0.444457424859052   0.388895379096200   0.875000000000000   1.0000000
B2   B   0.944443575880725   0.888886147904448   0.875000000000000   1.0000000
B2   B   0.111256186729910   0.888743813270106   0.375000000000000   1.0000000
B2   B   0.777771838523081   0.388895293539312   0.875000000000000   1.0000000
B2   B   0.444154293206858   0.888743813270106   0.375000000000000   1.0000000
B2   B   0.269765658989725   0.387528692127776   0.375000000000000   1.0000000
B2   B   0.276406629895897   0.555975145782895   0.375000000000000   1.0000000
B2   B   0.624491034042681   0.375508965957391   0.375000000000000   1.0000000
B2   B   0.779113174117539   0.891559681568481   0.375000000000000   1.0000000
B2   B   0.946267396400756   0.388341072799094   0.375000000000000   1.0000000
B2   B   0.111110960342011   0.555555254017303   0.875000000000000   1.0000000
B2   B   0.277780244700121   0.055556671530338   0.875000000000000   1.0000000
B2   B   0.777770276431655   0.555551804882460   0.875000000000000   1.0000000
B2   B   0.611109238690291   0.055556424119262   0.875000000000000   1.0000000
B2   B   0.944445336810955   0.055554663188961   0.875000000000000   1.0000000
B2   B   0.055539463936561   0.111109402492695   0.124964686996968   1.0000000
B2   B   0.555588766717124   0.611112499854789   0.124983921927854   1.0000000
B2   B   0.388906039863646   0.111145413060588   0.125555901163375   1.0000000
B2   B   0.888854586939365   0.611093960136369   0.125555901163375   1.0000000
B2   B   0.722236605222709   0.111109402492695   0.124964686996968   1.0000000
B2   B   0.055543809632798   0.777775580999642   0.624980259814653   1.0000000
B2   B   0.388898438033544   0.777775580999642   0.624980259814653   1.0000000
B2   B   0.222197359202914   0.277765346268131   0.624701434495597   1.0000000
B2   B   0.722234653731895   0.777802640797073   0.624701434495597   1.0000000
B2   B   0.555588766717124   0.277809600195687   0.625016078072093   1.0000000
B2   B   0.888890597507207   0.277763394777129   0.625035313003064   1.0000000
B2   B   0.222222222222221   0.777777777777779   0.124859908407729   1.0000000
B2   B   0.055539463936561   0.277763394777129   0.124964686996968   1.0000000
B2   B   0.388887500145174   0.277809600195687   0.124983921927854   1.0000000
B2   B   0.555575617703322   0.777787765735337   0.125316034470684   1.0000000
B2   B   0.888878814698672   0.777787765735337   0.125316034470684   1.0000000
B2   B   0.722234653731895   0.277765346268131   0.125298565504373   1.0000000
B2   B   0.055549660598048   0.944450339401880   0.625045933809074   1.0000000
B2   B   0.388898438033544   0.944456190367188   0.624980259814653   1.0000000
B2   B   0.222212234264646   0.444424382296695   0.624683965529302   1.0000000
B2   B   0.555555555555557   0.444444444444443   0.625520562805025   1.0000000
B2   B   0.722236605222709   0.944460536063492   0.625035313003064   1.0000000
B2   B   0.888878814698672   0.444424382296695   0.624683965529302   1.0000000
B2   B   0.055549660598048   0.444432654529399   0.124954066190887   1.0000000
B2   B   0.222224419000334   0.944456190367188   0.125019740185351   1.0000000
B2   B   0.555567345470558   0.944450339401880   0.124954066190887   1.0000000
B2   B   0.388887500145174   0.444411233282818   0.124983921927854   1.0000000
B2   B   0.888890597507207   0.944460536063492   0.124964686996968   1.0000000
B2   B   0.722190399804292   0.444411233282818   0.124983921927854   1.0000000
B2   B   0.222224419000334   0.611101561966460   0.624980259814653   1.0000000
B2   B   0.055539463936561   0.111109402492695   0.625035313003064   1.0000000
B2   B   0.555588766717124   0.611112499854789   0.625016078072093   1.0000000
B2   B   0.388906039863646   0.111145413060588   0.624444098836540   1.0000000
B2   B   0.888854586939365   0.611093960136369   0.624444098836540   1.0000000
B2   B   0.055543809632798   0.611101561966460   0.125019740185351   1.0000000
B2   B   0.722236605222709   0.111109402492695   0.625035313003064   1.0000000
B2   B   0.222212234264644   0.111121185301291   0.125316034470684   1.0000000
B2   B   0.388906039863646   0.611093960136369   0.125555901163375   1.0000000
B2   B   0.722190399804292   0.611112499854789   0.124983921927854   1.0000000
B2   B   0.555575617703322   0.111121185301291   0.125316034470684   1.0000000
B2   B   0.388906039863646   0.611093960136369   0.624444098836540   1.0000000
B2   B   0.888888888888886   0.111111111111114   0.124816410539077   1.0000000
B2   B   0.222222222222221   0.777777777777779   0.625140091592220   1.0000000
B2   B   0.055539463936561   0.277763394777129   0.625035313003064   1.0000000
B2   B   0.388887500145174   0.277809600195687   0.625016078072093   1.0000000
B2   B   0.555575617703322   0.777787765735337   0.624683965529302   1.0000000
B2   B   0.888878814698672   0.777787765735337   0.624683965529302   1.0000000
B2   B   0.722234653731895   0.277765346268131   0.624701434495597   1.0000000
B2   B   0.055543809632798   0.777775580999642   0.125019740185351   1.0000000
B2   B   0.388898438033544   0.777775580999642   0.125019740185351   1.0000000
B2   B   0.222197359202914   0.277765346268131   0.125298565504373   1.0000000
B2   B   0.722234653731895   0.777802640797073   0.125298565504373   1.0000000
B2   B   0.555588766717124   0.277809600195687   0.124983921927854   1.0000000
B2   B   0.888890597507207   0.277763394777129   0.124964686996968   1.0000000
B2   B   0.055549660598048   0.444432654529399   0.625045933809074   1.0000000
B2   B   0.222224419000334   0.944456190367188   0.624980259814653   1.0000000
B2   B   0.555567345470558   0.944450339401880   0.625045933809074   1.0000000
B2   B   0.388887500145174   0.444411233282818   0.625016078072093   1.0000000
B2   B   0.888890597507207   0.944460536063492   0.625035313003064   1.0000000
B2   B   0.055549660598048   0.944450339401880   0.124954066190887   1.0000000
B2   B   0.722190399804292   0.444411233282818   0.625016078072093   1.0000000
B2   B   0.388898438033544   0.944456190367188   0.125019740185351   1.0000000
B2   B   0.222212234264644   0.444424382296695   0.125316034470684   1.0000000
B2   B   0.222224419000334   0.611101561966460   0.125019740185351   1.0000000
B2   B   0.555555555555557   0.444444444444443   0.124479437195044   1.0000000
B2   B   0.722236605222709   0.944460536063492   0.124964686996968   1.0000000
B2   B   0.888878814698672   0.444424382296695   0.125316034470684   1.0000000
B2   B   0.055543809632798   0.611101561966460   0.624980259814653   1.0000000
B2   B   0.222212234264646   0.111121185301291   0.624683965529302   1.0000000
B2   B   0.722190399804292   0.611112499854789   0.625016078072093   1.0000000
B2   B   0.555575617703322   0.111121185301291   0.624683965529302   1.0000000
B2   B   0.888888888888886   0.111111111111114   0.625183589460896   1.0000000


