data_1
_audit_creation_method   'vasp2cif'
_cell_length_a    17.52789999999977
_cell_length_b    17.52789999999977
_cell_length_c    15.0
_cell_angle_alpha    90.0
_cell_angle_beta    90.0
_cell_angle_gamma    119.99999999999916

_symmetry_space_group_name_H-M    'P 1'
loop_
_atom_site_label
_atom_site_type_symbol
_atom_site_fract_x
_atom_site_fract_y
_atom_site_fract_z
_atom_site_occupancy
B2   B   0.905428974894583   0.953057912839298   0.108285643352949   1.0000000
B2   B   0.904736896202194   0.095264850489806   0.108807466891038   1.0000000
B2   B   0.904574563119065   0.237854814967381   0.109404513815734   1.0000000
B2   B   0.905352262603545   0.381141894888521   0.108683744413273   1.0000000
B2   B   0.905988082352873   0.523990428968791   0.108314131354812   1.0000000
B2   B   0.905136338289379   0.667208066469448   0.109452008352100   1.0000000
B2   B   0.905523150950672   0.810117887011158   0.109140118573692   1.0000000
B2   B   0.047677421684092   0.952324301680904   0.109258202609616   1.0000000
B2   B   0.046943802502696   0.094572745577446   0.108285642879948   1.0000000
B2   B   0.046660457964326   0.237430397452426   0.108374437831659   1.0000000
B2   B   0.046988189909318   0.380830782545518   0.108519168475520   1.0000000
B2   B   0.047438436784269   0.524073407431805   0.108570152631578   1.0000000
B2   B   0.048094251773190   0.667132611699969   0.109492488712301   1.0000000
B2   B   0.047830331522258   0.809740718882036   0.110127117333793   1.0000000
B2   B   0.190261030810954   0.952171431570736   0.110127115807795   1.0000000
B2   B   0.189883814024835   0.094478561757326   0.109140114449695   1.0000000
B2   B   0.187956203922363   0.235884968498976   0.109402358828876   1.0000000
B2   B   0.188138940430360   0.379677131825519   0.110675370214984   1.0000000
B2   B   0.188691407752371   0.524061959935997   0.109802971956856   1.0000000
B2   B   0.190278459608957   0.667102929635580   0.109545554915017   1.0000000
B2   B   0.190361602181075   0.809640092359923   0.110225819819260   1.0000000
B2   B   0.332869124005027   0.951907472060814   0.109492491126299   1.0000000
B2   B   0.332793647507558   0.094865401630629   0.109452003975100   1.0000000
B2   B   0.332128980577200   0.236973802201143   0.111960140383503   1.0000000
B2   B   0.327477830252021   0.375027203912930   0.117801479686035   1.0000000
B2   B   0.328306320334503   0.523764475973760   0.118041112066991   1.0000000
B2   B   0.332637298335505   0.667364404438504   0.112246986505815   1.0000000
B2   B   0.332898723684417   0.809723169234038   0.109545558448020   1.0000000
B2   B   0.475928279987204   0.952563144145717   0.108570157942579   1.0000000
B2   B   0.476011312537212   0.094013740323118   0.108314140047812   1.0000000
B2   B   0.475958125088541   0.235797871139146   0.109606924342340   1.0000000
B2   B   0.475160103664933   0.376409009529400   0.122059573156386   1.0000000
B2   B   0.476237308459234   0.671695537005492   0.118041112580998   1.0000000
B2   B   0.475939755854002   0.811310279315630   0.109802977693857   1.0000000
B2   B   0.619170956426500   0.953013494507682   0.108519170582521   1.0000000
B2   B   0.618859775459477   0.094649424678460   0.108683745499273   1.0000000
B2   B   0.619610744976068   0.237445522082074   0.107665539788902   1.0000000
B2   B   0.620499814256614   0.379501919952394   0.110931609597299   1.0000000
B2   B   0.623592559440601   0.524841563538075   0.122059567898384   1.0000000
B2   B   0.624974445542071   0.672523893463976   0.117801479399032   1.0000000
B2   B   0.620324611334486   0.811862828972645   0.110675365866981   1.0000000
B2   B   0.762571343075575   0.953341261562679   0.108374440057654   1.0000000
B2   B   0.762146880793620   0.095427113414940   0.109404516218732   1.0000000
B2   B   0.762314331752092   0.237687373427913   0.109044186738556   1.0000000
B2   B   0.762556300301935   0.380391010454943   0.107665531381903   1.0000000
B2   B   0.764203881036852   0.524043557718469   0.109606916378343   1.0000000
B2   B   0.763027856569849   0.667872699967790   0.111960149011502   1.0000000
B2   B   0.764116702925032   0.812045512759644   0.109402361302872   1.0000000
Si2   Si   0.476494591008159   0.523507064538837   0.132804547364063   1.0000000
N2   N   0.952653839197274   0.905033118091282   0.108755026694748   1.0000000
N2   N   0.952257926166012   0.047743791143986   0.108387568969781   1.0000000
N2   N   0.951818679877594   0.190327394367915   0.108942290229010   1.0000000
N2   N   0.951977619233053   0.333184712878942   0.108952962175638   1.0000000
N2   N   0.952610516913569   0.476126997101659   0.108459899917102   1.0000000
N2   N   0.952559753067574   0.618997331880329   0.108984265257041   1.0000000
N2   N   0.952725341856508   0.762112344545687   0.109599342892544   1.0000000
N2   N   0.095272896705265   0.904728855762744   0.110181299865921   1.0000000
N2   N   0.094968587346714   0.047347879617726   0.108755033191745   1.0000000
N2   N   0.093648239343520   0.189335156317649   0.108012442443453   1.0000000
N2   N   0.093808101529499   0.332709967138511   0.108517150918194   1.0000000
N2   N   0.094140403608244   0.476073975422199   0.108387696392649   1.0000000
N2   N   0.095103210880956   0.619202003269342   0.109061932664878   1.0000000
N2   N   0.095301782552522   0.761985990459123   0.110311642219525   1.0000000
N2   N   0.238015721701874   0.904699928205476   0.110311643111526   1.0000000
N2   N   0.237889384831333   0.047276427107483   0.109599335469547   1.0000000
N2   N   0.237263654984570   0.189683299715864   0.109533516739201   1.0000000
N2   N   0.234167988627380   0.330476833473353   0.111674533981724   1.0000000
N2   N   0.235001972666445   0.475664866776030   0.111800077624112   1.0000000
N2   N   0.237622115308963   0.619292415022986   0.110195125120359   1.0000000
N2   N   0.237918558588737   0.762083075606256   0.109789171046214   1.0000000
N2   N   0.380799667833652   0.904898414902045   0.109061936814881   1.0000000
N2   N   0.381004395306670   0.047441997852432   0.108984273005041   1.0000000
N2   N   0.380652166949962   0.189729897210802   0.110126304673307   1.0000000
N2   N   0.379379508881657   0.332117995096626   0.117519664556399   1.0000000
N2   N   0.370140249518354   0.470706147676298   0.125079079757040   1.0000000
N2   N   0.380511047285562   0.619490750673433   0.117135203456578   1.0000000
N2   N   0.380709323466016   0.762379591571023   0.110195129741360   1.0000000
N2   N   0.523927756805809   0.905861191907730   0.108387710170648   1.0000000
N2   N   0.523874661247349   0.047391144846426   0.108459900362107   1.0000000
N2   N   0.524269501753880   0.189215687545322   0.107655977400731   1.0000000
N2   N   0.524896238979465   0.329953604370526   0.113050946400802   1.0000000
N2   N   0.529501420333341   0.470500176291664   0.127834448191302   1.0000000
N2   N   0.529295511606714   0.629861432620642   0.125079081335041   1.0000000
N2   N   0.524336915836982   0.764999883661547   0.111800074808110   1.0000000
N2   N   0.667291823473485   0.906193645943509   0.108517148705194   1.0000000
N2   N   0.666816956852041   0.048024035015950   0.108952960707643   1.0000000
N2   N   0.666991331590762   0.190162572207426   0.108469464236883   1.0000000
N2   N   0.667631602447946   0.332370208101056   0.107425061587086   1.0000000
N2   N   0.670048059761460   0.475105477030534   0.113050926001802   1.0000000
N2   N   0.667883635547375   0.620622185663351   0.117519667191397   1.0000000
N2   N   0.669524832980636   0.765833768840612   0.111674526850725   1.0000000
N2   N   0.810666556198361   0.906353475690482   0.108012442819458   1.0000000
N2   N   0.809674330909086   0.048183029195411   0.108942299916010   1.0000000
N2   N   0.809558294823692   0.190443359868301   0.109860622875169   1.0000000
N2   N   0.809839165900587   0.333010353570257   0.108469458296888   1.0000000
N2   N   0.810786204009687   0.475732252696117   0.107655956889728   1.0000000
N2   N   0.810271824156190   0.619349537097029   0.110126320026309   1.0000000
N2   N   0.810318362378142   0.762738036799438   0.109533528035196   1.0000000


