data_1
_audit_creation_method   'vasp2cif'
_cell_length_a    17.52789999999977
_cell_length_b    17.52789999999977
_cell_length_c    15.0
_cell_angle_alpha    90.0
_cell_angle_beta    90.0
_cell_angle_gamma    119.99999999999916

_symmetry_space_group_name_H-M    'P 1'
loop_
_atom_site_label
_atom_site_type_symbol
_atom_site_fract_x
_atom_site_fract_y
_atom_site_fract_z
_atom_site_occupancy
B2   B   0.904669673195880   0.952277852857057   0.111007483585088   1.0000000
B2   B   0.904798139548179   0.095236157033552   0.111032582818151   1.0000000
B2   B   0.904789930452189   0.238142483374378   0.111037684596230   1.0000000
B2   B   0.904651161359967   0.380980675498228   0.110994324661077   1.0000000
B2   B   0.905063808241316   0.523866905762132   0.110994956942977   1.0000000
B2   B   0.905200452548846   0.666879268358362   0.111045683307279   1.0000000
B2   B   0.905073093384672   0.809784739189508   0.111038911815747   1.0000000
B2   B   0.047746850138478   0.952498170055066   0.111000776951877   1.0000000
B2   B   0.047805742426596   0.095381153983853   0.111005501157121   1.0000000
B2   B   0.047861724612347   0.238212492641221   0.110995306338071   1.0000000
B2   B   0.047812285174003   0.380993429733602   0.111013342890817   1.0000000
B2   B   0.047743486016935   0.523827204126472   0.111001562610206   1.0000000
B2   B   0.047719487272803   0.666709382091279   0.111010728167927   1.0000000
B2   B   0.047727569143116   0.809581414672726   0.110993194438042   1.0000000
B2   B   0.190346702450976   0.952162568150408   0.110991010702198   1.0000000
B2   B   0.190584528154009   0.095229305454220   0.111028733800212   1.0000000
B2   B   0.191073173223862   0.238531957410954   0.110996756516160   1.0000000
B2   B   0.191084994828056   0.381106293675919   0.110988971744567   1.0000000
B2   B   0.190586790950226   0.523903357299313   0.111046662801791   1.0000000
B2   B   0.190350502265800   0.666734848280732   0.111050254223430   1.0000000
B2   B   0.190460499417679   0.809511947812265   0.110994222100107   1.0000000
B2   B   0.333278143864856   0.952211290816731   0.111013764334070   1.0000000
B2   B   0.332926409957282   0.094421920217998   0.111051520920406   1.0000000
B2   B   0.333441719259822   0.237030123220733   0.111057093438239   1.0000000
B2   B   0.335122203777727   0.381844949727242   0.111047286667423   1.0000000
B2   B   0.333451324733065   0.524971614062441   0.111052942451964   1.0000000
B2   B   0.332942110403969   0.667053492345785   0.111067071392746   1.0000000
B2   B   0.333286500316345   0.809629512516159   0.111051713029211   1.0000000
B2   B   0.476172339558675   0.952370422735924   0.111003401762674   1.0000000
B2   B   0.476082891700550   0.095578937960597   0.110988406710019   1.0000000
B2   B   0.475052837494596   0.238186389289009   0.111025150589118   1.0000000
B2   B   0.475070384543546   0.665425782360563   0.111036173319913   1.0000000
B2   B   0.476104843284897   0.809077609764208   0.111039384324208   1.0000000
B2   B   0.618961484273267   0.952201245974151   0.111011352808065   1.0000000
B2   B   0.618941483792171   0.095333119925188   0.110993475259493   1.0000000
B2   B   0.618805093154041   0.238472558752155   0.111001865833783   1.0000000
B2   B   0.618894998619114   0.382573678323715   0.111015976816200   1.0000000
B2   B   0.620639130112248   0.524622578024730   0.111096936657974   1.0000000
B2   B   0.618896822248737   0.664911467446781   0.111021908871151   1.0000000
B2   B   0.618837387744154   0.808931456103610   0.110994849163054   1.0000000
B2   B   0.761780460004561   0.952167643950152   0.110998469461677   1.0000000
B2   B   0.761842139604769   0.095217550922153   0.111037905137849   1.0000000
B2   B   0.761755183989561   0.238194497567986   0.111045915653268   1.0000000
B2   B   0.761445213464618   0.381111478221768   0.111006173476495   1.0000000
B2   B   0.762859034152659   0.524232828495237   0.111022339015176   1.0000000
B2   B   0.762864333768202   0.667205716894287   0.111026592064683   1.0000000
B2   B   0.761464113755970   0.808947016085314   0.111002905864385   1.0000000
C2   C   0.474697430916757   0.380929658198622   0.111207807805465   1.0000000
C2   C   0.474675548358164   0.522329322544484   0.111199380771323   1.0000000
C2   C   0.519785513183527   0.474201313273182   0.111299325810934   1.0000000
N2   N   0.952513105612971   0.904929115962231   0.111001064586694   1.0000000
N2   N   0.952565231346321   0.047711232053885   0.110997850261909   1.0000000
N2   N   0.952701815141201   0.190643561677983   0.111008431769271   1.0000000
N2   N   0.952558452199230   0.333439416697013   0.111001933353622   1.0000000
N2   N   0.952506071042020   0.476166314738779   0.110959228203871   1.0000000
N2   N   0.952461643108356   0.619024232675747   0.111002866251335   1.0000000
N2   N   0.952463811526396   0.762007207240318   0.111016082614977   1.0000000
N2   N   0.095328009733850   0.904900883489985   0.110969000138732   1.0000000
N2   N   0.095686076678280   0.048044252906424   0.110994512363723   1.0000000
N2   N   0.096175179538963   0.191097516623994   0.110982271696492   1.0000000
N2   N   0.096181129330567   0.333641416612893   0.110978951996305   1.0000000
N2   N   0.095686815484030   0.476209716526282   0.111003763296250   1.0000000
N2   N   0.095329308793206   0.618995739595346   0.111005295525395   1.0000000
N2   N   0.095314693221731   0.761940029101424   0.110977888824751   1.0000000
N2   N   0.238187610541164   0.904860238435265   0.110976768174046   1.0000000
N2   N   0.238195013944358   0.047796879095814   0.111013494805181   1.0000000
N2   N   0.239176612503978   0.191411767601333   0.111008820920954   1.0000000
N2   N   0.240579595866147   0.334566524952171   0.110967928076174   1.0000000
N2   N   0.239185944069330   0.476323244423155   0.111010748915040   1.0000000
N2   N   0.238202662802341   0.618949434002406   0.111044081144146   1.0000000
N2   N   0.238192177637088   0.761885961947147   0.111015114573211   1.0000000
N2   N   0.381010296010190   0.904785507738906   0.111008819283259   1.0000000
N2   N   0.380975623437098   0.047782537477237   0.111003437671928   1.0000000
N2   N   0.380779795637151   0.190433697888807   0.111029599030682   1.0000000
N2   N   0.384120062055322   0.334460358356424   0.111078454352560   1.0000000
N2   N   0.384105913385919   0.478211431182904   0.111072649180432   1.0000000
N2   N   0.380794337078549   0.618901684778583   0.111035484212924   1.0000000
N2   N   0.380989854113333   0.761753924466733   0.111041161633563   1.0000000
N2   N   0.523667995126418   0.904288890704399   0.110999347112023   1.0000000
N2   N   0.523653888429422   0.047942897451879   0.110963869681394   1.0000000
N2   N   0.523360852955377   0.191770991955029   0.110979360635839   1.0000000
N2   N   0.520698385565711   0.335765210649543   0.111059597212194   1.0000000
N2   N   0.520699515095065   0.613502506948325   0.111063485842458   1.0000000
N2   N   0.523384970216827   0.760165538940222   0.111002535073065   1.0000000
N2   N   0.666278994333968   0.904030408177558   0.110984941598705   1.0000000
N2   N   0.666460096707325   0.047525540529893   0.110998588014348   1.0000000
N2   N   0.666254491744619   0.190823355195785   0.111003927376554   1.0000000
N2   N   0.665173222292668   0.333839045370558   0.110978333088620   1.0000000
N2   N   0.667132494777162   0.476704900923305   0.110998803342196   1.0000000
N2   N   0.667143143462185   0.619022510276759   0.110994719943315   1.0000000
N2   N   0.665193955704920   0.759930052606229   0.110977085277305   1.0000000
N2   N   0.809063441051246   0.904192856784868   0.110984496633455   1.0000000
N2   N   0.809436870710192   0.047467497059336   0.111010139496203   1.0000000
N2   N   0.809427793096677   0.190561013097921   0.111030053655437   1.0000000
N2   N   0.809041175757840   0.333457606560064   0.111001783050791   1.0000000
N2   N   0.809536555365684   0.476207972550914   0.110998641058985   1.0000000
N2   N   0.809736618636856   0.619154288905401   0.111023822595109   1.0000000
N2   N   0.809544888584899   0.761920170175706   0.111015024866579   1.0000000


