data_1
_audit_creation_method   'vasp2cif'
_cell_length_a    14.93631414619966
_cell_length_b    14.936314146199727
_cell_length_c    13.341276283792837
_cell_angle_alpha    90.0
_cell_angle_beta    90.0
_cell_angle_gamma    119.99999999999984

_symmetry_space_group_name_H-M    'P 1'
loop_
_atom_site_label
_atom_site_type_symbol
_atom_site_fract_x
_atom_site_fract_y
_atom_site_fract_z
_atom_site_occupancy
C2   C   0.392631277237445   0.436865638891307   0.375000000000000   1.0000000
C2   C   0.440276297044742   0.376896391153822   0.375000000000000   1.0000000
C2   C   0.547533578613781   0.408070125045816   0.375000000000000   1.0000000
N2   N   0.111062088186043   0.055529887538820   0.125043963838651   1.0000000
N2   N   0.611090826600482   0.555481327200721   0.125009618628293   1.0000000
N2   N   0.444431018697001   0.055559616749476   0.125110918388466   1.0000000
N2   N   0.944459109873205   0.555555185303794   0.125029118360471   1.0000000
N2   N   0.777722822915056   0.055537433909786   0.125056502938718   1.0000000
N2   N   0.111112678993709   0.722214172472305   0.624985613089455   1.0000000
N2   N   0.444426503845656   0.722175068595446   0.624943623560125   1.0000000
N2   N   0.277728038512348   0.222182381307420   0.625293931506446   1.0000000
N2   N   0.777753797819420   0.722192535959637   0.624838187549624   1.0000000
N2   N   0.611097440860100   0.222265019635482   0.624732249027863   1.0000000
N2   N   0.944410270457256   0.222197449547031   0.624972577173293   1.0000000
N2   N   0.277774808763709   0.722196350828100   0.125012937988658   1.0000000
N2   N   0.111066267228303   0.222181962429024   0.124992025155760   1.0000000
N2   N   0.444433578323179   0.222219112599616   0.124753040743032   1.0000000
N2   N   0.611075038828117   0.722158193955229   0.125151638930821   1.0000000
N2   N   0.944444575014315   0.722227024890877   0.125047792721887   1.0000000
N2   N   0.777755227040373   0.222224077612773   0.125126714056770   1.0000000
N2   N   0.111096748386402   0.888886619091808   0.624964861298283   1.0000000
N2   N   0.444424572408387   0.888873409655418   0.624992814467783   1.0000000
N2   N   0.277762802681565   0.388835578513597   0.625423006540643   1.0000000
N2   N   0.611155195994692   0.388914423348957   0.625909799763549   1.0000000
N2   N   0.777725464788730   0.888853530912862   0.624922222665900   1.0000000
N2   N   0.944449310172848   0.388877211584214   0.624961215726369   1.0000000
N2   N   0.111102743595006   0.388857613504195   0.125030711550644   1.0000000
N2   N   0.277770958151369   0.888883245394376   0.125007376989175   1.0000000
N2   N   0.611066272630561   0.888860377894659   0.125045453580607   1.0000000
N2   N   0.444426680417729   0.388807940067621   0.123305290293778   1.0000000
N2   N   0.944411178398037   0.888875943583860   0.125032697429829   1.0000000
N2   N   0.777802373364589   0.388888835999397   0.125065545994856   1.0000000
N2   N   0.277781391495983   0.555510557501325   0.624947635952412   1.0000000
N2   N   0.111062088186043   0.055529887538820   0.624956036161355   1.0000000
N2   N   0.611090826600482   0.555481327200721   0.624990381371715   1.0000000
N2   N   0.444431018697001   0.055559616749476   0.624889081611531   1.0000000
N2   N   0.944459109873205   0.555555185303794   0.624970881639553   1.0000000
N2   N   0.111117964520679   0.555536218308538   0.125023809760979   1.0000000
N2   N   0.777722822915056   0.055537433909786   0.624943497061285   1.0000000
N2   N   0.277756713777259   0.055550875565504   0.125029892140234   1.0000000
N2   N   0.444443660025487   0.555492075185525   0.124763506478272   1.0000000
N2   N   0.777798175323772   0.555576850289051   0.125029373886513   1.0000000
N2   N   0.611071054826316   0.055564945773357   0.125136305649865   1.0000000
N2   N   0.444443660025487   0.555492075185525   0.625236493521732   1.0000000
N2   N   0.944387299737199   0.055524326639882   0.125032062104875   1.0000000
N2   N   0.277774808763709   0.722196350828100   0.624987062011343   1.0000000
N2   N   0.111066267228303   0.222181962429024   0.625007974844248   1.0000000
N2   N   0.444433578323179   0.222219112599616   0.625246959256962   1.0000000
N2   N   0.611075038828117   0.722158193955229   0.624848361069199   1.0000000
N2   N   0.944444575014315   0.722227024890877   0.624952207278127   1.0000000
N2   N   0.777755227040368   0.222224077612773   0.624873285943237   1.0000000
N2   N   0.111112678993709   0.722214172472305   0.125014386910561   1.0000000
N2   N   0.444426503845656   0.722175068595446   0.125056376439873   1.0000000
N2   N   0.277728038512348   0.222182381307420   0.124706068493561   1.0000000
N2   N   0.777753797819420   0.722192535959637   0.125161812450383   1.0000000
N2   N   0.611097440860100   0.222265019635482   0.125267750972130   1.0000000
N2   N   0.944410270457256   0.222197449547031   0.125027422826721   1.0000000
N2   N   0.111102743595006   0.388857613504195   0.624969288449380   1.0000000
N2   N   0.277770958151369   0.888883245394378   0.624992623010815   1.0000000
N2   N   0.611066272630561   0.888860377894659   0.624954546419392   1.0000000
N2   N   0.444426680417729   0.388807940067621   0.626694709706226   1.0000000
N2   N   0.944411178398036   0.888875943583860   0.624967302570167   1.0000000
N2   N   0.111096748386402   0.888886619091808   0.125035138701751   1.0000000
N2   N   0.777802373364589   0.388888835999397   0.624934454005152   1.0000000
N2   N   0.444424572408387   0.888873409655418   0.125007185532228   1.0000000
N2   N   0.277762802681565   0.388835578513597   0.124576993459369   1.0000000
N2   N   0.277781391495983   0.555510557501325   0.125052364047579   1.0000000
N2   N   0.611155195994692   0.388914423348957   0.124090200236461   1.0000000
N2   N   0.777725464788730   0.888853530912862   0.125077777334110   1.0000000
N2   N   0.944449310172848   0.388877211584215   0.125038784273621   1.0000000
N2   N   0.111117964520679   0.555536218308538   0.624976190239026   1.0000000
N2   N   0.277756713777259   0.055550875565504   0.624970107859763   1.0000000
N2   N   0.777798175323772   0.555576850289051   0.624970626113469   1.0000000
N2   N   0.611071054826316   0.055564945773357   0.624863694350146   1.0000000
N2   N   0.944387299737199   0.055524326639882   0.624967937895137   1.0000000
N2   N   0.051304160235760   0.108791222344219   0.375000000000000   1.0000000
N2   N   0.559803883943821   0.604963797592298   0.375000000000000   1.0000000
N2   N   0.387693344115078   0.113222141753759   0.375000000000000   1.0000000
N2   N   0.894551553826388   0.614448563427570   0.375000000000000   1.0000000
N2   N   0.720331806371483   0.113778512087625   0.375000000000000   1.0000000
N2   N   0.055560518598299   0.777777978334143   0.875000000000000   1.0000000
N2   N   0.388895119831648   0.777781677659089   0.875000000000000   1.0000000
N2   N   0.222221948044570   0.277778601157043   0.875000000000000   1.0000000
N2   N   0.722227395979824   0.777778827899551   0.875000000000000   1.0000000
N2   N   0.555560307172958   0.277778414964669   0.875000000000000   1.0000000
N2   N   0.888894274477148   0.277783087378263   0.875000000000000   1.0000000
N2   N   0.225256206404971   0.779332910058872   0.375000000000000   1.0000000
N2   N   0.052546941873707   0.277008230030986   0.375000000000000   1.0000000
N2   N   0.378898499707485   0.271686752852050   0.375000000000000   1.0000000
N2   N   0.556934731471509   0.776549920160341   0.375000000000000   1.0000000
N2   N   0.888762845698395   0.777046952167314   0.375000000000000   1.0000000
N2   N   0.720236669908836   0.282035018867890   0.375000000000000   1.0000000
N2   N   0.055558665273375   0.944445124165137   0.875000000000000   1.0000000
N2   N   0.388896078547732   0.944446579850519   0.875000000000000   1.0000000
N2   N   0.222222571162507   0.444448845166473   0.875000000000000   1.0000000
N2   N   0.555564131838159   0.444455179686871   0.875000000000000   1.0000000
N2   N   0.722226879950164   0.944445861021056   0.875000000000000   1.0000000
N2   N   0.888898191558852   0.444449981848272   0.875000000000000   1.0000000
N2   N   0.057506536013262   0.445157027733964   0.375000000000000   1.0000000
N2   N   0.222729527798449   0.945227295974792   0.375000000000000   1.0000000
N2   N   0.556078932574777   0.948397230761006   0.375000000000000   1.0000000
N2   N   0.886713490922632   0.943353162786857   0.375000000000000   1.0000000
N2   N   0.739888991474677   0.454569759458733   0.375000000000000   1.0000000
N2   N   0.222224682437353   0.611113163090418   0.875000000000000   1.0000000
N2   N   0.055557070286000   0.111109065226158   0.875000000000000   1.0000000
N2   N   0.555559924966494   0.611113409912160   0.875000000000000   1.0000000
N2   N   0.388893424726943   0.111109639500137   0.875000000000000   1.0000000
N2   N   0.888897399563002   0.611112739698319   0.875000000000000   1.0000000
N2   N   0.059785298174993   0.612954488046555   0.375000000000000   1.0000000
N2   N   0.722224712123542   0.111112189326155   0.875000000000000   1.0000000
N2   N   0.217689325148861   0.108188199357862   0.375000000000000   1.0000000
N2   N   0.392461871778338   0.609738552783530   0.375000000000000   1.0000000
N2   N   0.723166772137425   0.609130909609906   0.375000000000000   1.0000000
N2   N   0.555430863117135   0.122444036795091   0.375000000000000   1.0000000
N2   N   0.388892542764723   0.611113821343826   0.875000000000000   1.0000000
N2   N   0.885976902647074   0.110971583582834   0.375000000000000   1.0000000
N2   N   0.222227576097649   0.777778784343420   0.875000000000000   1.0000000
N2   N   0.055557415809296   0.277780229352484   0.875000000000000   1.0000000
N2   N   0.388890175624811   0.277777806383671   0.875000000000000   1.0000000
N2   N   0.555559895172943   0.777779634094487   0.875000000000000   1.0000000
N2   N   0.888895283639537   0.777780297325546   0.875000000000000   1.0000000
N2   N   0.722226998067283   0.277780319430065   0.875000000000000   1.0000000
N2   N   0.058120607449761   0.779189337110255   0.375000000000000   1.0000000
N2   N   0.391459043091672   0.778872662443621   0.375000000000000   1.0000000
N2   N   0.215578229509091   0.273656764198984   0.375000000000000   1.0000000
N2   N   0.722458727579965   0.776770260771040   0.375000000000000   1.0000000
N2   N   0.549304775201152   0.300560882012566   0.375000000000000   1.0000000
N2   N   0.886966689149318   0.278879509965840   0.375000000000000   1.0000000
N2   N   0.055558356712311   0.444449528673236   0.875000000000000   1.0000000
N2   N   0.222226212241416   0.944443740643232   0.875000000000000   1.0000000
N2   N   0.555559771309209   0.944447389556421   0.875000000000000   1.0000000
N2   N   0.388891528283442   0.444453123951419   0.875000000000000   1.0000000
N2   N   0.888895341705697   0.944446204274627   0.875000000000000   1.0000000
N2   N   0.053627366907243   0.942972455949109   0.375000000000000   1.0000000
N2   N   0.722233769055911   0.444450833680306   0.875000000000000   1.0000000
N2   N   0.390680588217363   0.947672400531804   0.375000000000000   1.0000000
N2   N   0.222665698625267   0.442797658066076   0.375000000000000   1.0000000
N2   N   0.225723195505781   0.611367418976156   0.375000000000000   1.0000000
N2   N   0.720960562829013   0.944870776742886   0.375000000000000   1.0000000
N2   N   0.893567160163760   0.447161832455450   0.375000000000000   1.0000000
N2   N   0.055560823297172   0.611111745654900   0.875000000000000   1.0000000
N2   N   0.222222446337570   0.111108325615599   0.875000000000000   1.0000000
N2   N   0.722227306789552   0.611113503830139   0.875000000000000   1.0000000
N2   N   0.555559229643732   0.111110841721314   0.875000000000000   1.0000000
N2   N   0.888893710665973   0.111111813084629   0.875000000000000   1.0000000
B2   B   0.107154781089787   0.053334535646794   0.375000000000000   1.0000000
B2   B   0.613383545203130   0.543524438137740   0.375000000000000   1.0000000
B2   B   0.444616260420852   0.059685786442484   0.375000000000000   1.0000000
B2   B   0.949102954549850   0.558037169220780   0.375000000000000   1.0000000
B2   B   0.775112807872472   0.056361729915557   0.375000000000000   1.0000000
B2   B   0.111117154293014   0.722220061732306   0.875000000000000   1.0000000
B2   B   0.444441896457963   0.722211452454447   0.875000000000000   1.0000000
B2   B   0.277792432280531   0.222235678337028   0.875000000000000   1.0000000
B2   B   0.777775943021439   0.722210667313906   0.875000000000000   1.0000000
B2   B   0.611109175949971   0.222236002917280   0.875000000000000   1.0000000
B2   B   0.944454665954244   0.222232707778910   0.875000000000000   1.0000000
B2   B   0.280506607486469   0.722948162347877   0.375000000000000   1.0000000
B2   B   0.105534413781136   0.219429852852040   0.375000000000000   1.0000000
B2   B   0.440046633211309   0.223988821274881   0.375000000000000   1.0000000
B2   B   0.612146089674532   0.718467801207587   0.375000000000000   1.0000000
B2   B   0.947519401500133   0.724482872764621   0.375000000000000   1.0000000
B2   B   0.775276098182019   0.224652725883901   0.375000000000000   1.0000000
B2   B   0.111118311547087   0.888889681281377   0.875000000000000   1.0000000
B2   B   0.444444868718448   0.888886597922546   0.875000000000000   1.0000000
B2   B   0.277794691854508   0.388900917502987   0.875000000000000   1.0000000
B2   B   0.611114285824537   0.388899888306553   0.875000000000000   1.0000000
B2   B   0.777780047472530   0.888883729431779   0.875000000000000   1.0000000
B2   B   0.944452026831016   0.388901120844742   0.875000000000000   1.0000000
B2   B   0.111505629081378   0.388415165224072   0.375000000000000   1.0000000
B2   B   0.279541148978993   0.890701937004058   0.375000000000000   1.0000000
B2   B   0.610308219540653   0.889490110138038   0.375000000000000   1.0000000
B2   B   0.942738269632367   0.887895399995948   0.375000000000000   1.0000000
B2   B   0.782532879590738   0.391231416683147   0.375000000000000   1.0000000
B2   B   0.277785713545098   0.555554784195309   0.875000000000000   1.0000000
B2   B   0.111122520322033   0.055561135611101   0.875000000000000   1.0000000
B2   B   0.611103667948653   0.555542278726969   0.875000000000000   1.0000000
B2   B   0.444447284097594   0.055561917832156   0.875000000000000   1.0000000
B2   B   0.944448639079907   0.555556372668025   0.875000000000000   1.0000000
B2   B   0.114508344517382   0.556455920418605   0.375000000000000   1.0000000
B2   B   0.777781213758520   0.055558297621043   0.875000000000000   1.0000000
B2   B   0.276314506242722   0.055953555671165   0.375000000000000   1.0000000
B2   B   0.449351114476246   0.553883987718795   0.375000000000000   1.0000000
B2   B   0.783922359721053   0.560653406880707   0.375000000000000   1.0000000
B2   B   0.609643425970257   0.061889737579027   0.375000000000000   1.0000000
B2   B   0.444442428043450   0.555544430567009   0.875000000000000   1.0000000
B2   B   0.940806509686418   0.054284947038008   0.375000000000000   1.0000000
B2   B   0.277782779025203   0.722219633407108   0.875000000000000   1.0000000
B2   B   0.111126382448145   0.222232616732886   0.875000000000000   1.0000000
B2   B   0.444453110831088   0.222238274441887   0.875000000000000   1.0000000
B2   B   0.611104366274530   0.722207618133080   0.875000000000000   1.0000000
B2   B   0.944447197184223   0.722215407933602   0.875000000000000   1.0000000
B2   B   0.777779618050653   0.222234155738175   0.875000000000000   1.0000000
B2   B   0.114334129777302   0.723934170593440   0.375000000000000   1.0000000
B2   B   0.446117941284237   0.721446691589394   0.375000000000000   1.0000000
B2   B   0.269538719824612   0.218012065736250   0.375000000000000   1.0000000
B2   B   0.777575674684063   0.721053350958417   0.375000000000000   1.0000000
B2   B   0.609547644631553   0.238815639753510   0.375000000000000   1.0000000
B2   B   0.941501918405361   0.222222763670515   0.375000000000000   1.0000000
B2   B   0.111125324187646   0.388900196637081   0.875000000000000   1.0000000
B2   B   0.277783895248615   0.888889776720881   0.875000000000000   1.0000000
B2   B   0.611107518659118   0.888882467117488   0.875000000000000   1.0000000
B2   B   0.444452966518703   0.388901553945213   0.875000000000000   1.0000000
B2   B   0.944451125394433   0.888887163295605   0.875000000000000   1.0000000
B2   B   0.111739544759340   0.889684218111722   0.375000000000000   1.0000000
B2   B   0.777776878820425   0.388901350784496   0.875000000000000   1.0000000
B2   B   0.445428849270751   0.890855403230982   0.375000000000000   1.0000000
B2   B   0.274905829676362   0.383761831914746   0.375000000000000   1.0000000
B2   B   0.280678246299466   0.554398369535733   0.375000000000000   1.0000000
B2   B   0.776102155458159   0.888266915936549   0.375000000000000   1.0000000
B2   B   0.946619078081960   0.390055979726885   0.375000000000000   1.0000000
B2   B   0.111119367224951   0.555559126933970   0.875000000000000   1.0000000
B2   B   0.277787304837385   0.055562885774954   0.875000000000000   1.0000000
B2   B   0.777773603315360   0.555544585521913   0.875000000000000   1.0000000
B2   B   0.611108467658807   0.055558989563862   0.875000000000000   1.0000000
B2   B   0.944454632049179   0.055559313729859   0.875000000000000   1.0000000
B2   B   0.055520570945582   0.111095444968342   0.124985684999174   1.0000000
B2   B   0.555502902061240   0.610996221707914   0.125009765420823   1.0000000
B2   B   0.388894377301878   0.111155252619646   0.124970436369027   1.0000000
B2   B   0.888864735271736   0.611081167491173   0.125015733827077   1.0000000
B2   B   0.722180361761674   0.111117856276289   0.125036156335202   1.0000000
B2   B   0.055556153601665   0.777768509137211   0.625002856797441   1.0000000
B2   B   0.388883447140662   0.777736347099175   0.624977405623274   1.0000000
B2   B   0.222218398089403   0.277773162435270   0.625275781644004   1.0000000
B2   B   0.722163035251969   0.777715812773573   0.624934843909815   1.0000000
B2   B   0.555585446567869   0.277920817941173   0.625189873213644   1.0000000
B2   B   0.888877271315596   0.277780596494897   0.624992579798052   1.0000000
B2   B   0.222229158824398   0.777759564668160   0.124992889982052   1.0000000
B2   B   0.055545157266613   0.277766194525626   0.124996463504398   1.0000000
B2   B   0.388902217641488   0.277823736701105   0.124195511996512   1.0000000
B2   B   0.555511982400576   0.777712661593426   0.125068036588104   1.0000000
B2   B   0.888864822851942   0.777752197765457   0.125011259744115   1.0000000
B2   B   0.722212076846416   0.277833292915635   0.125083762871683   1.0000000
B2   B   0.055533425767678   0.944433673400615   0.624997389390804   1.0000000
B2   B   0.388883578358906   0.944445192242103   0.624988873889071   1.0000000
B2   B   0.222251104603389   0.444394008387967   0.625033266630231   1.0000000
B2   B   0.555496650306511   0.444298039590786   0.625723181997633   1.0000000
B2   B   0.722164086603185   0.944412768624586   0.624987948061765   1.0000000
B2   B   0.888869836754287   0.444433590521501   0.624970685313635   1.0000000
B2   B   0.055569977400878   0.444424024134444   0.125016635321106   1.0000000
B2   B   0.222221336241260   0.944448217315979   0.125003725496804   1.0000000
B2   B   0.555517811989788   0.944433019715067   0.125029841411239   1.0000000
B2   B   0.388918822526398   0.444339701231862   0.124489849796973   1.0000000
B2   B   0.888845314890143   0.944418468513091   0.124997273483264   1.0000000
B2   B   0.722153871035220   0.444410500611173   0.125065597387425   1.0000000
B2   B   0.222241063886876   0.611067978321710   0.624963841384416   1.0000000
B2   B   0.055520570945582   0.111095444968342   0.625014315000868   1.0000000
B2   B   0.555502902061240   0.610996221707914   0.624990234579179   1.0000000
B2   B   0.388894377301878   0.111155252619646   0.625029563630964   1.0000000
B2   B   0.888864735271736   0.611081167491173   0.624984266172917   1.0000000
B2   B   0.055559598227380   0.611089547403050   0.124998859839271   1.0000000
B2   B   0.722180361761674   0.111117856276289   0.624963843664815   1.0000000
B2   B   0.222201121317485   0.111116101868934   0.124923856204531   1.0000000
B2   B   0.388896327115441   0.611025593197974   0.125033611889548   1.0000000
B2   B   0.722182861445368   0.611026385632626   0.125008815911494   1.0000000
B2   B   0.555537617295710   0.111165339661885   0.125158907140121   1.0000000
B2   B   0.388896327115441   0.611025593197974   0.624966388110459   1.0000000
B2   B   0.888849336123362   0.111097982889256   0.124991688662886   1.0000000
B2   B   0.222229158824398   0.777759564668160   0.625007110017941   1.0000000
B2   B   0.055545157266613   0.277766194525626   0.625003536495618   1.0000000
B2   B   0.388902217641488   0.277823736701105   0.625804488003470   1.0000000
B2   B   0.555511982400576   0.777712661593426   0.624931963411920   1.0000000
B2   B   0.888864822851942   0.777752197765457   0.624988740255882   1.0000000
B2   B   0.722212076846416   0.277833292915634   0.624916237128323   1.0000000
B2   B   0.055556153601665   0.777768509137211   0.124997143202584   1.0000000
B2   B   0.388883447140662   0.777736347099175   0.125022594376709   1.0000000
B2   B   0.222218398089403   0.277773162435270   0.124724218356005   1.0000000
B2   B   0.722163035251969   0.777715812773573   0.125065156090177   1.0000000
B2   B   0.555585446567869   0.277920817941173   0.124810126786354   1.0000000
B2   B   0.888877271315596   0.277780596494897   0.125007420201951   1.0000000
B2   B   0.055569977400878   0.444424024134444   0.624983364678866   1.0000000
B2   B   0.222221336241260   0.944448217315979   0.624996274503181   1.0000000
B2   B   0.555517811989788   0.944433019715067   0.624970158588763   1.0000000
B2   B   0.388918822526398   0.444339701231862   0.625510150203031   1.0000000
B2   B   0.888845314890143   0.944418468513091   0.625002726516711   1.0000000
B2   B   0.055533425767678   0.944433673400615   0.125002610609190   1.0000000
B2   B   0.722153871035220   0.444410500611173   0.624934402612588   1.0000000
B2   B   0.388883578358906   0.944445192242103   0.125011126110892   1.0000000
B2   B   0.222251104603389   0.444394008387967   0.124966733369799   1.0000000
B2   B   0.222241063886876   0.611067978321710   0.125036158615579   1.0000000
B2   B   0.555496650306511   0.444298039590786   0.124276818002351   1.0000000
B2   B   0.722164086603185   0.944412768624586   0.125012051938240   1.0000000
B2   B   0.888869836754287   0.444433590521501   0.125029314686343   1.0000000
B2   B   0.055559598227381   0.611089547403050   0.625001140160738   1.0000000
B2   B   0.222201121317485   0.111116101868934   0.625076143795472   1.0000000
B2   B   0.722182861445368   0.611026385632626   0.624991184088480   1.0000000
B2   B   0.555537617295710   0.111165339661885   0.624841092859892   1.0000000
B2   B   0.888849336123362   0.111097982889256   0.625008311337114   1.0000000


