data_1
_audit_creation_method   'vasp2cif'
_cell_length_a    14.93631414619966
_cell_length_b    14.936314146199727
_cell_length_c    13.341276283792837
_cell_angle_alpha    90.0
_cell_angle_beta    90.0
_cell_angle_gamma    119.99999999999984

_symmetry_space_group_name_H-M    'P 1'
loop_
_atom_site_label
_atom_site_type_symbol
_atom_site_fract_x
_atom_site_fract_y
_atom_site_fract_z
_atom_site_occupancy
P2   P   0.504409950526094   0.418871641929711   0.375000000000000   1.0000000
N2   N   0.111099514767467   0.055549862100711   0.124949414723780   1.0000000
N2   N   0.611145225917460   0.555632275048043   0.123945147210422   1.0000000
N2   N   0.444476902499739   0.055566845157978   0.124913684082426   1.0000000
N2   N   0.944422613050763   0.555541278373851   0.124918456505993   1.0000000
N2   N   0.777810279808282   0.055571806570808   0.124868262054129   1.0000000
N2   N   0.111103316390863   0.722218324862095   0.625106832414005   1.0000000
N2   N   0.444476902499739   0.722243390675096   0.625086315917574   1.0000000
N2   N   0.277727029276317   0.222196106104917   0.625212848093495   1.0000000
N2   N   0.777771494676715   0.722238250815252   0.625184517466022   1.0000000
N2   N   0.611137970208068   0.222206970283187   0.625254330261684   1.0000000
N2   N   0.944451064705768   0.222222456339866   0.625104553166947   1.0000000
N2   N   0.277795104058561   0.722228492113259   0.124899966745969   1.0000000
N2   N   0.111083538858550   0.222208436095939   0.124929954520341   1.0000000
N2   N   0.444463832579146   0.222221879929596   0.124700056812745   1.0000000
N2   N   0.611137970208068   0.722264333258210   0.124745669738316   1.0000000
N2   N   0.944422613050763   0.722214668010246   0.124918456505993   1.0000000
N2   N   0.777802183909352   0.222215120192819   0.124877465353451   1.0000000
N2   N   0.111107159857793   0.888891042088210   0.625110173194075   1.0000000
N2   N   0.444478670784043   0.888906002058685   0.625104257304007   1.0000000
N2   N   0.277727029276317   0.388864256504728   0.625212848093495   1.0000000
N2   N   0.611145225917460   0.388846284202746   0.626054852789578   1.0000000
N2   N   0.777802183909352   0.888920397049862   0.625122534646549   1.0000000
N2   N   0.944440325187247   0.388881781342663   0.625077523005438   1.0000000
N2   N   0.111099514767467   0.388882986000084   0.124949414723780   1.0000000
N2   N   0.277795104058561   0.888899945278631   0.124899966745969   1.0000000
N2   N   0.611149751361692   0.888920198268436   0.124880620886111   1.0000000
N2   N   0.444263569315160   0.388798451324244   0.123338521909599   1.0000000
N2   N   0.944440325187247   0.888891877177913   0.124922476994562   1.0000000
N2   N   0.777771494676715   0.388866577194792   0.124815482533977   1.0000000
N2   N   0.277790038279450   0.555557055192480   0.625076942919110   1.0000000
N2   N   0.111099514767467   0.055549862100711   0.625050585276219   1.0000000
N2   N   0.611145225917460   0.555632275048043   0.626054852789578   1.0000000
N2   N   0.444476902499739   0.055566845157978   0.625086315917574   1.0000000
N2   N   0.944422613050763   0.555541278373851   0.625081543494007   1.0000000
N2   N   0.111107159857793   0.555549451102911   0.124889826805925   1.0000000
N2   N   0.777810279808282   0.055571806570808   0.625131737945871   1.0000000
N2   N   0.277790038279450   0.055566316420305   0.124923057080890   1.0000000
N2   N   0.444463832579146   0.555575285982887   0.124700056812745   1.0000000
N2   N   0.777753019801024   0.555543176567181   0.124814161016461   1.0000000
N2   N   0.611149751361692   0.055562886426585   0.124880620886111   1.0000000
N2   N   0.444463832579146   0.555575285982887   0.625299943187255   1.0000000
N2   N   0.944451064705768   0.055561941699237   0.124895446833052   1.0000000
N2   N   0.277795104058561   0.722228492113259   0.625100033254032   1.0000000
N2   N   0.111083538858550   0.222208436095939   0.625070045479659   1.0000000
N2   N   0.444463832579146   0.222221879929596   0.625299943187255   1.0000000
N2   N   0.611137970208068   0.722264333258210   0.625254330261684   1.0000000
N2   N   0.944422613050763   0.722214668010246   0.625081543494007   1.0000000
N2   N   0.777802183909352   0.222215120192819   0.625122534646549   1.0000000
N2   N   0.111103316390863   0.722218324862095   0.124893167585994   1.0000000
N2   N   0.444476902499739   0.722243390675096   0.124913684082426   1.0000000
N2   N   0.277727029276317   0.222196106104917   0.124787151906504   1.0000000
N2   N   0.777771494676715   0.722238250815252   0.124815482533977   1.0000000
N2   N   0.611137970208068   0.222206970283187   0.124745669738316   1.0000000
N2   N   0.944451064705768   0.222222456339866   0.124895446833052   1.0000000
N2   N   0.111099514767467   0.388882986000084   0.625050585276219   1.0000000
N2   N   0.277795104058561   0.888899945278631   0.625100033254032   1.0000000
N2   N   0.611149751361692   0.888920198268436   0.625119379113889   1.0000000
N2   N   0.444263569315160   0.388798451324244   0.626661478090401   1.0000000
N2   N   0.944440325187247   0.888891877177913   0.625077523005438   1.0000000
N2   N   0.111107159857793   0.888891042088210   0.124889826805925   1.0000000
N2   N   0.777771494676715   0.388866577194792   0.625184517466022   1.0000000
N2   N   0.444478670784043   0.888906002058685   0.124895742695993   1.0000000
N2   N   0.277727029276317   0.388864256504728   0.124787151906504   1.0000000
N2   N   0.277790038279450   0.555557055192480   0.124923057080890   1.0000000
N2   N   0.611145225917460   0.388846284202746   0.123945147210422   1.0000000
N2   N   0.777802183909352   0.888920397049862   0.124877465353451   1.0000000
N2   N   0.944440325187247   0.388881781342663   0.124922476994562   1.0000000
N2   N   0.111107159857793   0.555549451102911   0.625110173194075   1.0000000
N2   N   0.277790038279450   0.055566316420305   0.625076942919110   1.0000000
N2   N   0.777753019801024   0.555543176567181   0.625185838983539   1.0000000
N2   N   0.611149751361692   0.055562886426585   0.625119379113889   1.0000000
N2   N   0.944451064705768   0.055561941699237   0.625104553166947   1.0000000
N2   N   0.059780255800447   0.113536840804417   0.375000000000000   1.0000000
N2   N   0.555691636842537   0.620268881290202   0.375000000000000   1.0000000
N2   N   0.388538742594997   0.107178639400312   0.375000000000000   1.0000000
N2   N   0.884453844269242   0.608893588801291   0.375000000000000   1.0000000
N2   N   0.724491755681722   0.111425855981634   0.375000000000000   1.0000000
N2   N   0.055554374169394   0.777775796625640   0.875000000000000   1.0000000
N2   N   0.388878947458714   0.777776682827725   0.875000000000000   1.0000000
N2   N   0.222218791291308   0.277776062312321   0.875000000000000   1.0000000
N2   N   0.722215990076789   0.777770929614632   0.875000000000000   1.0000000
N2   N   0.555544527886256   0.277770267419038   0.875000000000000   1.0000000
N2   N   0.888885800509308   0.277780528136819   0.875000000000000   1.0000000
N2   N   0.220529608602237   0.776931470967786   0.375000000000000   1.0000000
N2   N   0.059780255800447   0.279576748329366   0.375000000000000   1.0000000
N2   N   0.397865825841999   0.279640061072872   0.375000000000000   1.0000000
N2   N   0.556146036886702   0.781940769633321   0.375000000000000   1.0000000
N2   N   0.887392396560548   0.777196885791165   0.375000000000000   1.0000000
N2   N   0.723521936463184   0.276341266138481   0.375000000000000   1.0000000
N2   N   0.055551005343699   0.944437316507387   0.875000000000000   1.0000000
N2   N   0.388878947458714   0.944435597964324   0.875000000000000   1.0000000
N2   N   0.222214381850918   0.444446998046127   0.875000000000000   1.0000000
N2   N   0.555550592642520   0.444441962987924   0.875000000000000   1.0000000
N2   N   0.722212150056468   0.944437997929956   0.875000000000000   1.0000000
N2   N   0.888890463868654   0.444448133400148   0.875000000000000   1.0000000
N2   N   0.056699751691914   0.444821827575297   0.375000000000000   1.0000000
N2   N   0.221264038626141   0.943061885956638   0.375000000000000   1.0000000
N2   N   0.556242335833641   0.944787834583485   0.375000000000000   1.0000000
N2   N   0.397865825841999   0.451559098102463   0.375000000000000   1.0000000
N2   N   0.891426792110319   0.946378436810986   0.375000000000000   1.0000000
N2   N   0.716479022737823   0.440775558231389   0.375000000000000   1.0000000
N2   N   0.222212712567285   0.611112459674020   0.875000000000000   1.0000000
N2   N   0.055551226973032   0.111105787974275   0.875000000000000   1.0000000
N2   N   0.555544527886256   0.611107593800555   0.875000000000000   1.0000000
N2   N   0.388877063032820   0.111096573684314   0.875000000000000   1.0000000
N2   N   0.888897506346782   0.611115419840063   0.875000000000000   1.0000000
N2   N   0.053325774071194   0.610222570962556   0.375000000000000   1.0000000
N2   N   0.722212150056468   0.111107485459848   0.875000000000000   1.0000000
N2   N   0.226324821694864   0.113312255501380   0.375000000000000   1.0000000
N2   N   0.388538742594997   0.614693436528028   0.375000000000000   1.0000000
N2   N   0.716479022737823   0.609036797839769   0.375000000000000   1.0000000
N2   N   0.556146036886702   0.107538600586717   0.375000000000000   1.0000000
N2   N   0.388877063032820   0.611113822681848   0.875000000000000   1.0000000
N2   N   0.892358919631648   0.112846126482495   0.375000000000000   1.0000000
N2   N   0.222214922930141   0.777774128131738   0.875000000000000   1.0000000
N2   N   0.055551226973032   0.277778772332094   0.875000000000000   1.0000000
N2   N   0.388880864398529   0.277764690689069   0.875000000000000   1.0000000
N2   N   0.555543527795295   0.777773480356701   0.875000000000000   1.0000000
N2   N   0.888890463868654   0.777775663801842   0.875000000000000   1.0000000
N2   N   0.722215990076789   0.277778393795492   0.875000000000000   1.0000000
N2   N   0.053325774071194   0.776436536441974   0.375000000000000   1.0000000
N2   N   0.388150843463253   0.778678869928926   0.375000000000000   1.0000000
N2   N   0.228911459005862   0.281122396169599   0.375000000000000   1.0000000
N2   N   0.723521936463184   0.780514003658038   0.375000000000000   1.0000000
N2   N   0.555691636842537   0.268756088885672   0.375000000000000   1.0000000
N2   N   0.891426792110319   0.278381688632667   0.375000000000000   1.0000000
N2   N   0.055551005343699   0.444447022169640   0.875000000000000   1.0000000
N2   N   0.222212712567285   0.944433586226601   0.875000000000000   1.0000000
N2   N   0.555542623560815   0.944437978447071   0.875000000000000   1.0000000
N2   N   0.388880864398529   0.444449507042796   0.875000000000000   1.0000000
N2   N   0.888885800509308   0.944438605705826   0.875000000000000   1.0000000
N2   N   0.056699751691914   0.945211257449945   0.375000000000000   1.0000000
N2   N   0.722225996469204   0.444449783376916   0.875000000000000   1.0000000
N2   N   0.388150843463253   0.942805306867663   0.375000000000000   1.0000000
N2   N   0.226324821694864   0.446345899526819   0.375000000000000   1.0000000
N2   N   0.221264038626141   0.611535486002839   0.375000000000000   1.0000000
N2   N   0.724491755681722   0.946399233033424   0.375000000000000   1.0000000
N2   N   0.887392396560548   0.443528844102718   0.375000000000000   1.0000000
N2   N   0.055554374169394   0.611111910877090   0.875000000000000   1.0000000
N2   N   0.222214381850918   0.111100717138127   0.875000000000000   1.0000000
N2   N   0.722225996469204   0.611109546425625   0.875000000000000   1.0000000
N2   N   0.555543527795295   0.111103380771929   0.875000000000000   1.0000000
N2   N   0.888883784289869   0.111108558811606   0.875000000000000   1.0000000
B2   B   0.114935813983757   0.057555712568092   0.375000000000000   1.0000000
B2   B   0.602585493194341   0.558281870733862   0.375000000000000   1.0000000
B2   B   0.444758959066066   0.053307010251420   0.375000000000000   1.0000000
B2   B   0.941516830450746   0.554520096412848   0.375000000000000   1.0000000
B2   B   0.780933371289203   0.057133352311269   0.375000000000000   1.0000000
B2   B   0.111100233545028   0.722216783439179   0.875000000000000   1.0000000
B2   B   0.444432206847590   0.722183226686305   0.875000000000000   1.0000000
B2   B   0.277838634247420   0.222264779068671   0.875000000000000   1.0000000
B2   B   0.777732398471231   0.722156389987538   0.875000000000000   1.0000000
B2   B   0.611073365454967   0.222260625380734   0.875000000000000   1.0000000
B2   B   0.944455783214683   0.222236432180220   0.875000000000000   1.0000000
B2   B   0.276881597552664   0.722342227188474   0.375000000000000   1.0000000
B2   B   0.117483087825237   0.225408210579283   0.375000000000000   1.0000000
B2   B   0.445165621306898   0.217927631042338   0.375000000000000   1.0000000
B2   B   0.612459889022986   0.728172406346813   0.375000000000000   1.0000000
B2   B   0.941516830450746   0.720330067371232   0.375000000000000   1.0000000
B2   B   0.780185025934772   0.222501053467518   0.375000000000000   1.0000000
B2   B   0.111112731386475   0.888890075635166   0.875000000000000   1.0000000
B2   B   0.444427683287706   0.888880508310517   0.875000000000000   1.0000000
B2   B   0.277838634247420   0.388907188512078   0.875000000000000   1.0000000
B2   B   0.611062636909468   0.388912496490409   0.875000000000000   1.0000000
B2   B   0.777753011904929   0.888843612801976   0.875000000000000   1.0000000
B2   B   0.944436409172755   0.388903518586213   0.875000000000000   1.0000000
B2   B   0.114935813983757   0.390713434748993   0.375000000000000   1.0000000
B2   B   0.276881597552664   0.887872703697518   0.375000000000000   1.0000000
B2   B   0.612920077186536   0.891443663553284   0.375000000000000   1.0000000
B2   B   0.945104681727909   0.889071310061023   0.375000000000000   1.0000000
B2   B   0.775179206198090   0.387661333506478   0.375000000000000   1.0000000
B2   B   0.277796492208576   0.555543999070473   0.875000000000000   1.0000000
B2   B   0.111141779503459   0.055572427064913   0.875000000000000   1.0000000
B2   B   0.611062636909468   0.555483473752388   0.875000000000000   1.0000000
B2   B   0.444432206847590   0.055582313494619   0.875000000000000   1.0000000
B2   B   0.944418148235908   0.555552438593406   0.875000000000000   1.0000000
B2   B   0.110251971635926   0.555698829105646   0.375000000000000   1.0000000
B2   B   0.777762373544188   0.055547853438762   0.875000000000000   1.0000000
B2   B   0.278258815489121   0.054469776729607   0.375000000000000   1.0000000
B2   B   0.445165621306898   0.560571323597896   0.375000000000000   1.0000000
B2   B   0.771196371309616   0.552264852321476   0.375000000000000   1.0000000
B2   B   0.612920077186536   0.054809746966581   0.375000000000000   1.0000000
B2   B   0.444449564803136   0.555513529625243   0.875000000000000   1.0000000
B2   B   0.948421246674630   0.057750967544429   0.375000000000000   1.0000000
B2   B   0.277774429229827   0.722211114249706   0.875000000000000   1.0000000
B2   B   0.111162334821482   0.222247834077406   0.875000000000000   1.0000000
B2   B   0.444449564803136   0.222269368511228   0.875000000000000   1.0000000
B2   B   0.611073365454967   0.722146073407561   0.875000000000000   1.0000000
B2   B   0.944418148235908   0.722199042975836   0.875000000000000   1.0000000
B2   B   0.777753011904929   0.222242732436281   0.875000000000000   1.0000000
B2   B   0.109156915027413   0.721245124180370   0.375000000000000   1.0000000
B2   B   0.444758959066066   0.724785282147981   0.375000000000000   1.0000000
B2   B   0.287054039590579   0.227220657194603   0.375000000000000   1.0000000
B2   B   0.775179206198090   0.720851206024939   0.375000000000000   1.0000000
B2   B   0.612459889022986   0.217620816009501   0.375000000000000   1.0000000
B2   B   0.948421246674630   0.224003612463537   0.375000000000000   1.0000000
B2   B   0.111141779503459   0.388902685771874   0.875000000000000   1.0000000
B2   B   0.277774429229827   0.888896648313450   0.875000000000000   1.0000000
B2   B   0.611084001832557   0.888854092671784   0.875000000000000   1.0000000
B2   B   0.444480166505313   0.388906749919321   0.875000000000000   1.0000000
B2   B   0.944436409172755   0.888866223919870   0.875000000000000   1.0000000
B2   B   0.110251971635926   0.887886475863607   0.375000000000000   1.0000000
B2   B   0.777732398471231   0.388909341817020   0.875000000000000   1.0000000
B2   B   0.444675451057455   0.889004392195392   0.375000000000000   1.0000000
B2   B   0.287054039590579   0.393166715729305   0.375000000000000   1.0000000
B2   B   0.278258815489121   0.557122372092850   0.375000000000000   1.0000000
B2   B   0.602585493194341   0.377636955793809   0.375000000000000   1.0000000
B2   B   0.780185025934772   0.891017305800583   0.375000000000000   1.0000000
B2   B   0.945104681727909   0.389366705000215   0.375000000000000   1.0000000
B2   B   0.111112731386475   0.555555989084637   0.875000000000000   1.0000000
B2   B   0.277796492208576   0.055585826471438   0.875000000000000   1.0000000
B2   B   0.777725336632869   0.555529334983102   0.875000000000000   1.0000000
B2   B   0.611084001832557   0.055563242494102   0.875000000000000   1.0000000
B2   B   0.944455783214683   0.055552684367798   0.875000000000000   1.0000000
B2   B   0.055617459982880   0.111164678438218   0.125128245916826   1.0000000
B2   B   0.555570067785784   0.610940433416991   0.125027042715036   1.0000000
B2   B   0.388998431089977   0.111330899794685   0.125205179919092   1.0000000
B2   B   0.888683369502267   0.611008351417805   0.125158585930100   1.0000000
B2   B   0.722241710949150   0.111138999005634   0.125040078800445   1.0000000
B2   B   0.055494888867554   0.777764669810909   0.624932551035993   1.0000000
B2   B   0.388952263386608   0.777753607506892   0.624922227278069   1.0000000
B2   B   0.222348608785151   0.277840971059243   0.624761233106980   1.0000000
B2   B   0.722162087752309   0.777692841232116   0.624942240174304   1.0000000
B2   B   0.555570067785784   0.277962967702130   0.624972957284964   1.0000000
B2   B   0.888882075458018   0.277776929360009   0.624933880111420   1.0000000
B2   B   0.222241004614991   0.777787168974163   0.125044617771666   1.0000000
B2   B   0.055617459982880   0.277786114877998   0.125128245916826   1.0000000
B2   B   0.389004278945153   0.277994277435322   0.125127010588294   1.0000000
B2   B   0.555596840743198   0.777711202570073   0.125083633397723   1.0000000
B2   B   0.888771361375816   0.777709462767097   0.125108731297158   1.0000000
B2   B   0.722162087752309   0.277802579853528   0.125057759825696   1.0000000
B2   B   0.055562771569563   0.944485904247607   0.624895470111109   1.0000000
B2   B   0.388952263386608   0.944531989213053   0.624922227278069   1.0000000
B2   B   0.222324632609281   0.444392875848263   0.624765242919933   1.0000000
B2   B   0.555390701957123   0.444362017645226   0.623698307178517   1.0000000
B2   B   0.722241710949150   0.944436045276852   0.624959921199556   1.0000000
B2   B   0.888771361375816   0.444395231942054   0.624891268702841   1.0000000
B2   B   0.055562771569563   0.444410200655286   0.125104529888891   1.0000000
B2   B   0.222274986009742   0.944551664165505   0.125092320726780   1.0000000
B2   B   0.555603182813749   0.944468258073539   0.125051689036923   1.0000000
B2   B   0.389004278945153   0.444343334843166   0.125127010588294   1.0000000
B2   B   0.888882075458018   0.944438479431346   0.125066119888579   1.0000000
B2   B   0.721946015142411   0.444344265587245   0.124998326890067   1.0000000
B2   B   0.222274986009742   0.611056655177572   0.624907679273220   1.0000000
B2   B   0.055617459982880   0.111164678438218   0.624871754083174   1.0000000
B2   B   0.555570067785784   0.610940433416991   0.624972957284964   1.0000000
B2   B   0.388998431089977   0.111330899794685   0.624794820080907   1.0000000
B2   B   0.888683369502267   0.611008351417805   0.624841414069899   1.0000000
B2   B   0.055494888867554   0.611063552389981   0.125067448964007   1.0000000
B2   B   0.722241710949150   0.111138999005634   0.624959921199556   1.0000000
B2   B   0.222324632609281   0.111265090094353   0.125234757080067   1.0000000
B2   B   0.388998431089977   0.611000864628635   0.125205179919092   1.0000000
B2   B   0.721946015142411   0.610935082888501   0.124998326890067   1.0000000
B2   B   0.555596840743198   0.111218971506461   0.125083633397723   1.0000000
B2   B   0.388998431089977   0.611000864628635   0.624794820080907   1.0000000
B2   B   0.888919993290775   0.111126663312059   0.125037255545866   1.0000000
B2   B   0.222241004614991   0.777787168974163   0.624955382228334   1.0000000
B2   B   0.055617459982880   0.277786114877998   0.624871754083174   1.0000000
B2   B   0.389004278945153   0.277994277435322   0.624872989411706   1.0000000
B2   B   0.555596840743198   0.777711202570073   0.624916366602277   1.0000000
B2   B   0.888771361375816   0.777709462767097   0.624891268702841   1.0000000
B2   B   0.722162087752309   0.277802579853528   0.624942240174304   1.0000000
B2   B   0.055494888867554   0.777764669810909   0.125067448964007   1.0000000
B2   B   0.388952263386608   0.777753607506892   0.125077772721932   1.0000000
B2   B   0.222348608785151   0.277840971059243   0.125238766893021   1.0000000
B2   B   0.722162087752309   0.777692841232116   0.125057759825696   1.0000000
B2   B   0.555570067785784   0.277962967702130   0.125027042715036   1.0000000
B2   B   0.888882075458018   0.277776929360009   0.125066119888579   1.0000000
B2   B   0.055562771569563   0.444410200655286   0.624895470111109   1.0000000
B2   B   0.222274986009742   0.944551664165505   0.624907679273220   1.0000000
B2   B   0.555603182813749   0.944468258073539   0.624948310963076   1.0000000
B2   B   0.389004278945153   0.444343334843166   0.624872989411706   1.0000000
B2   B   0.888882075458018   0.944438479431346   0.624933880111420   1.0000000
B2   B   0.055562771569563   0.944485904247607   0.125104529888891   1.0000000
B2   B   0.721946015142411   0.444344265587245   0.625001673109933   1.0000000
B2   B   0.388952263386608   0.944531989213053   0.125077772721932   1.0000000
B2   B   0.222324632609281   0.444392875848263   0.125234757080067   1.0000000
B2   B   0.222274986009742   0.611056655177572   0.125092320726780   1.0000000
B2   B   0.555390701957123   0.444362017645226   0.126301692821482   1.0000000
B2   B   0.722241710949150   0.944436045276852   0.125040078800445   1.0000000
B2   B   0.888771361375816   0.444395231942054   0.125108731297158   1.0000000
B2   B   0.055494888867554   0.611063552389981   0.624932551035993   1.0000000
B2   B   0.222324632609281   0.111265090094353   0.624765242919933   1.0000000
B2   B   0.721946015142411   0.610935082888501   0.625001673109933   1.0000000
B2   B   0.555596840743198   0.111218971506461   0.624916366602277   1.0000000
B2   B   0.888919993290775   0.111126663312059   0.624962744454133   1.0000000


