data_1
_audit_creation_method   'vasp2cif'
_cell_length_a    17.52789999999977
_cell_length_b    17.52789999999977
_cell_length_c    15.0
_cell_angle_alpha    90.0
_cell_angle_beta    90.0
_cell_angle_gamma    119.99999999999916

_symmetry_space_group_name_H-M    'P 1'
loop_
_atom_site_label
_atom_site_type_symbol
_atom_site_fract_x
_atom_site_fract_y
_atom_site_fract_z
_atom_site_occupancy
B2   B   0.910007127736145   0.954696020335572   0.110774145260750   1.0000000
B2   B   0.909128165210799   0.096196263321390   0.110688294510427   1.0000000
B2   B   0.908827046712080   0.238035225445165   0.110698555908262   1.0000000
B2   B   0.908941261962637   0.380475043915404   0.110750014819270   1.0000000
B2   B   0.908778030731304   0.523356103253791   0.110604809746155   1.0000000
B2   B   0.908760675098100   0.666359411022687   0.110779161978197   1.0000000
B2   B   0.905916524747401   0.808299203644539   0.110922881537569   1.0000000
B2   B   0.051095709474839   0.954142920636019   0.110739984675749   1.0000000
B2   B   0.052865498635967   0.097585391019179   0.110724752938209   1.0000000
B2   B   0.051944897608560   0.238991922462892   0.110732549490646   1.0000000
B2   B   0.050725776019570   0.381349614640781   0.110687568126525   1.0000000
B2   B   0.049557661427410   0.524672063008687   0.110648101343854   1.0000000
B2   B   0.049816713758069   0.668066775901714   0.110629002976626   1.0000000
B2   B   0.049885233349775   0.811067715867594   0.110783740685024   1.0000000
B2   B   0.193480332610170   0.955048167275012   0.110742274749600   1.0000000
B2   B   0.196419292712950   0.099553521653698   0.110742981179215   1.0000000
B2   B   0.196283231861281   0.240979281911059   0.110776194725498   1.0000000
B2   B   0.193266387992385   0.381944526002696   0.110709133950929   1.0000000
B2   B   0.189664675374316   0.525289367740933   0.110788405286985   1.0000000
B2   B   0.190171233862796   0.668991133094043   0.110737151433776   1.0000000
B2   B   0.192060529744130   0.811976501922906   0.110700381476908   1.0000000
B2   B   0.335450570328804   0.954777811036308   0.110690416120893   1.0000000
B2   B   0.337252689804896   0.098120110825505   0.110798921495755   1.0000000
B2   B   0.343444438691983   0.245993887351991   0.110827022199675   1.0000000
B2   B   0.339050635715062   0.383590734899576   0.110587146953022   1.0000000
B2   B   0.328517362636270   0.526796315177675   0.110753875308988   1.0000000
B2   B   0.329391516233110   0.670161993521131   0.110762899418441   1.0000000
B2   B   0.333966588520840   0.812436320562813   0.110732027598717   1.0000000
B2   B   0.477801196293271   0.953562706668301   0.110770817975765   1.0000000
B2   B   0.479075746334523   0.095387608779765   0.110823999985084   1.0000000
B2   B   0.480822149173645   0.237592253438865   0.110726489478270   1.0000000
B2   B   0.497115763301881   0.391473616079833   0.110926583984259   1.0000000
B2   B   0.466319373640613   0.668563176497845   0.110607444443409   1.0000000
B2   B   0.476283765052400   0.811588014014099   0.110684559610314   1.0000000
B2   B   0.620984685390938   0.954631202524284   0.110859938309088   1.0000000
B2   B   0.621892641342921   0.094825790077827   0.110850472901946   1.0000000
B2   B   0.622959698989123   0.234974279798190   0.110785023661001   1.0000000
B2   B   0.625369840842915   0.373982836951681   0.110566635002635   1.0000000
B2   B   0.612498977584548   0.498467533433610   0.111132018735480   1.0000000
B2   B   0.620157128693577   0.815237791654852   0.110922522919225   1.0000000
B2   B   0.765595790797258   0.954220144356194   0.110894209507390   1.0000000
B2   B   0.765434851314947   0.095472420974478   0.110652657833895   1.0000000
B2   B   0.766000811176633   0.236914933521091   0.110711668144059   1.0000000
B2   B   0.767273822569364   0.378604569422901   0.110558261951726   1.0000000
B2   B   0.766953273671801   0.519939678841119   0.110572799238360   1.0000000
B2   B   0.764417811530850   0.659086016663510   0.111143143571658   1.0000000
B2   B   0.768456299673513   0.813655721937167   0.111222240295061   1.0000000
As2   As   0.616084075829304   0.659379908227260   0.110602878105921   1.0000000
N2   N   0.954726597444762   0.904529913413088   0.110752822020119   1.0000000
N2   N   0.957412142373587   0.049386724117991   0.110661194913827   1.0000000
N2   N   0.956791721880509   0.191028563296623   0.110703700507505   1.0000000
N2   N   0.956212204503883   0.333067836177453   0.110797056638565   1.0000000
N2   N   0.955439202887749   0.475763335477166   0.110713012102606   1.0000000
N2   N   0.955296211070821   0.618873288415290   0.110602252395087   1.0000000
N2   N   0.954079315548884   0.761706491011865   0.110850778542959   1.0000000
N2   N   0.098012447832157   0.906441627964271   0.110765921467230   1.0000000
N2   N   0.100241546729733   0.050203379771328   0.110696347803589   1.0000000
N2   N   0.100861946347589   0.192798279910785   0.110766230118367   1.0000000
N2   N   0.098861812443627   0.334102394520041   0.110622314424260   1.0000000
N2   N   0.096186615097269   0.476610090196321   0.110610393118709   1.0000000
N2   N   0.096154846829509   0.620059055678986   0.110611079278810   1.0000000
N2   N   0.096962838922750   0.763392195764895   0.110673815759997   1.0000000
N2   N   0.240348054149288   0.907104806644612   0.110680077249338   1.0000000
N2   N   0.242192791437554   0.050605729430150   0.110751440326402   1.0000000
N2   N   0.246422080549272   0.196264321534176   0.110767208657230   1.0000000
N2   N   0.243908612649541   0.336480662462962   0.110691579832829   1.0000000
N2   N   0.236428741441929   0.477082061207629   0.110892184226547   1.0000000
N2   N   0.236139575546764   0.620651564386753   0.110806489217618   1.0000000
N2   N   0.239015915963036   0.764117427700218   0.110713870059903   1.0000000
N2   N   0.382708176653623   0.906980181968288   0.110677517547273   1.0000000
N2   N   0.383984853795080   0.049711562066665   0.110739062372424   1.0000000
N2   N   0.386351921699870   0.193862691124421   0.110807060866234   1.0000000
N2   N   0.396221483969947   0.345240294882434   0.110814196165074   1.0000000
N2   N   0.376560485575587   0.479412317837616   0.110239435990295   1.0000000
N2   N   0.374353360905341   0.621266198564891   0.110682917439903   1.0000000
N2   N   0.381103003994613   0.764565161842604   0.110693422625648   1.0000000
N2   N   0.525503981347619   0.905972258021956   0.110785572434444   1.0000000
N2   N   0.526605306490624   0.047971900724091   0.110836736099676   1.0000000
N2   N   0.527867532111503   0.189810948674704   0.110793001527797   1.0000000
N2   N   0.530792890896974   0.331984988494659   0.110612759595922   1.0000000
N2   N   0.462870326616688   0.522347001292318   0.109180783877569   1.0000000
N2   N   0.498970136089069   0.607763325709202   0.110287128676311   1.0000000
N2   N   0.523838771018709   0.762692063914264   0.110583809182871   1.0000000
N2   N   0.669298573614420   0.908311970944507   0.110919554535986   1.0000000
N2   N   0.669940190644792   0.048379187271923   0.110768129145628   1.0000000
N2   N   0.670780429267316   0.188894753472472   0.110861595627258   1.0000000
N2   N   0.672581225281564   0.328938670852441   0.110585687722235   1.0000000
N2   N   0.672411464029729   0.467653089373871   0.110528257733745   1.0000000
N2   N   0.668071840283858   0.596199420656604   0.111482291368416   1.0000000
N2   N   0.674647309619312   0.776161058079893   0.111378418529442   1.0000000
N2   N   0.814774076541978   0.907466751881224   0.110978112499280   1.0000000
N2   N   0.813519469755797   0.048435240359197   0.110668843088819   1.0000000
N2   N   0.813700193845076   0.190039222933424   0.110567974535398   1.0000000
N2   N   0.814332835477169   0.331795815436771   0.110669852059709   1.0000000
N2   N   0.814344367269066   0.473820844163163   0.110441573333722   1.0000000
N2   N   0.813768513676889   0.615697501129288   0.110805635264860   1.0000000
N2   N   0.807885528022913   0.757244277041960   0.111102270150395   1.0000000


