data_1
_audit_creation_method   'vasp2cif'
_cell_length_a    17.52789999999977
_cell_length_b    17.52789999999977
_cell_length_c    15.0
_cell_angle_alpha    90.0
_cell_angle_beta    90.0
_cell_angle_gamma    119.99999999999916

_symmetry_space_group_name_H-M    'P 1'
loop_
_atom_site_label
_atom_site_type_symbol
_atom_site_fract_x
_atom_site_fract_y
_atom_site_fract_z
_atom_site_occupancy
B2   B   0.904894801008111   0.952468622448181   0.111018243233293   1.0000000
B2   B   0.904771060213973   0.095230960982023   0.111024179251816   1.0000000
B2   B   0.904771060213973   0.238111405557948   0.111024179251816   1.0000000
B2   B   0.904894801008111   0.380999196441931   0.111018243233293   1.0000000
B2   B   0.905184669511580   0.523988574285704   0.111025392848333   1.0000000
B2   B   0.905368022762707   0.666970520322852   0.111027836034293   1.0000000
B2   B   0.905184669511580   0.809769113108880   0.111025392848333   1.0000000
B2   B   0.047658643747313   0.952343377448691   0.111015987572660   1.0000000
B2   B   0.047533398747822   0.095107220187886   0.111018243233293   1.0000000
B2   B   0.047498603515130   0.238035810698566   0.111029777270284   1.0000000
B2   B   0.047533398747822   0.380999196441931   0.111018243233293   1.0000000
B2   B   0.047658643747313   0.523889995737622   0.111015987572660   1.0000000
B2   B   0.047798765992887   0.666761745823218   0.111021855718389   1.0000000
B2   B   0.047798765992887   0.809611749608668   0.111021855718389   1.0000000
B2   B   0.190390271587336   0.952203255203117   0.111021855718389   1.0000000
B2   B   0.190232908087124   0.094817351684416   0.111025392848333   1.0000000
B2   B   0.189969544903473   0.237643638487023   0.110991152025890   1.0000000
B2   B   0.189969544903473   0.380898924298452   0.110991152025890   1.0000000
B2   B   0.190232908087124   0.523988574285704   0.111025392848333   1.0000000
B2   B   0.190390271587336   0.666761745823218   0.111021855718389   1.0000000
B2   B   0.190476437651000   0.809525583545003   0.111014008215361   1.0000000
B2   B   0.333240275373780   0.952203255203117   0.111021855718389   1.0000000
B2   B   0.333031500874147   0.094633998433289   0.111027836034293   1.0000000
B2   B   0.332535803986383   0.236244413328267   0.111043339478568   1.0000000
B2   B   0.331187881554356   0.379880449717678   0.111145420854093   1.0000000
B2   B   0.332535803986383   0.524864408540118   0.111043339478568   1.0000000
B2   B   0.333031500874147   0.666970520322852   0.111027836034293   1.0000000
B2   B   0.333240275373780   0.809611749608668   0.111021855718389   1.0000000
B2   B   0.476112025459377   0.952343377448691   0.111015987572660   1.0000000
B2   B   0.476013446911294   0.094817351684416   0.111025392848333   1.0000000
B2   B   0.475137612656880   0.236244413328267   0.111043339478568   1.0000000
B2   B   0.472208090796423   0.372987178277850   0.110744740112461   1.0000000
B2   B   0.472208090796423   0.527793930400575   0.110744740112461   1.0000000
B2   B   0.475137612656880   0.667466217210615   0.111043339478568   1.0000000
B2   B   0.476013446911294   0.809769113108880   0.111025392848333   1.0000000
B2   B   0.619002824754072   0.952468622448181   0.111018243233293   1.0000000
B2   B   0.619002824754072   0.095107220187886   0.111018243233293   1.0000000
B2   B   0.619103096897551   0.237643638487023   0.110991152025890   1.0000000
B2   B   0.620121571478325   0.379880449717678   0.111145420854093   1.0000000
B2   B   0.627014842918154   0.527793930400575   0.110744740112461   1.0000000
B2   B   0.620121571478325   0.668814139642642   0.111145420854093   1.0000000
B2   B   0.619103096897551   0.810032476292530   0.110991152025890   1.0000000
B2   B   0.761966210497437   0.952503417680873   0.111029777270284   1.0000000
B2   B   0.761890615638055   0.095230960982023   0.111024179251816   1.0000000
B2   B   0.761966210497437   0.238035810698566   0.111029777270284   1.0000000
B2   B   0.762358382708980   0.380898924298452   0.110991152025890   1.0000000
B2   B   0.763757607867736   0.524864408540118   0.111043339478568   1.0000000
B2   B   0.763757607867736   0.667466217210615   0.111043339478568   1.0000000
B2   B   0.762358382708980   0.810032476292530   0.110991152025890   1.0000000
N2   N   0.952222467941196   0.904610136255767   0.111002571779218   1.0000000
N2   N   0.952402316550475   0.047599085367531   0.111002044853469   1.0000000
N2   N   0.952462412037336   0.190516003395168   0.111001309830875   1.0000000
N2   N   0.952402316550475   0.333372825935945   0.111002044853469   1.0000000
N2   N   0.952222467941196   0.476183637994425   0.111002571779218   1.0000000
N2   N   0.952075311359158   0.618937679685019   0.111004680581456   1.0000000
N2   N   0.952075311359158   0.761708937984136   0.111004680581456   1.0000000
N2   N   0.095219367990141   0.904782033927858   0.111002990396220   1.0000000
N2   N   0.095391265662231   0.047778933976809   0.111002571779218   1.0000000
N2   N   0.095576727694079   0.190692929079478   0.111010380459843   1.0000000
N2   N   0.095576727694079   0.333455104923603   0.111010380459843   1.0000000
N2   N   0.095391265662231   0.476183637994425   0.111002571779218   1.0000000
N2   N   0.095219367990141   0.619010351928283   0.111002990396220   1.0000000
N2   N   0.095166395588561   0.761869706727284   0.111001580510525   1.0000000
N2   N   0.238131695190721   0.904835006329437   0.111001580510525   1.0000000
N2   N   0.238292463933869   0.047926090558848   0.111004680581456   1.0000000
N2   N   0.238878337054037   0.191297806699827   0.111007903795095   1.0000000
N2   N   0.239332418029685   0.333951862169340   0.110973845426171   1.0000000
N2   N   0.238878337054037   0.476151836663206   0.111007903795095   1.0000000
N2   N   0.238292463933869   0.618937679685019   0.111004680581456   1.0000000
N2   N   0.238131695190721   0.761869706727284   0.111001580510525   1.0000000
N2   N   0.380991049989715   0.904782033927858   0.111002990396220   1.0000000
N2   N   0.381063722232980   0.047926090558848   0.111004680581456   1.0000000
N2   N   0.381483768038005   0.191537440468010   0.111011527515773   1.0000000
N2   N   0.384869276874126   0.337457401613500   0.111094812153585   1.0000000
N2   N   0.384869276874126   0.475983181569622   0.111094812153585   1.0000000
N2   N   0.381483768038005   0.618517633879993   0.111011527515773   1.0000000
N2   N   0.381063722232980   0.761708937984136   0.111004680581456   1.0000000
N2   N   0.523817763922572   0.904610136255767   0.111002571779218   1.0000000
N2   N   0.523817763922572   0.047778933976809   0.111002571779218   1.0000000
N2   N   0.523849565253790   0.191297806699827   0.111007903795095   1.0000000
N2   N   0.524018220347375   0.337457401613500   0.111094812153585   1.0000000
N2   N   0.524018220347375   0.615132125043873   0.111094812153585   1.0000000
N2   N   0.523849565253790   0.761123064863968   0.111007903795095   1.0000000
N2   N   0.666546296993393   0.904424674223920   0.111010380459843   1.0000000
N2   N   0.666628575981052   0.047599085367531   0.111002044853469   1.0000000
N2   N   0.666546296993393   0.190692929079478   0.111010380459843   1.0000000
N2   N   0.666049539747656   0.333951862169340   0.110973845426171   1.0000000
N2   N   0.662544000303497   0.475983181569622   0.111094812153585   1.0000000
N2   N   0.662544000303497   0.615132125043873   0.111094812153585   1.0000000
N2   N   0.666049539747656   0.760668983888321   0.110973845426171   1.0000000
N2   N   0.809308472838520   0.904424674223920   0.111010380459843   1.0000000
N2   N   0.809485398522831   0.047538989880670   0.111001309830875   1.0000000
N2   N   0.809485398522831   0.190516003395168   0.111001309830875   1.0000000
N2   N   0.809308472838520   0.333455104923603   0.111010380459843   1.0000000
N2   N   0.808703595218172   0.476151836663206   0.111007903795095   1.0000000
N2   N   0.808463961449989   0.618517633879993   0.111011527515773   1.0000000
N2   N   0.808703595218172   0.761123064863968   0.111007903795095   1.0000000
O2   O   0.523810499174999   0.476190902741997   0.111680280456691   1.0000000


