data_1
_audit_creation_method   'vasp2cif'
_cell_length_a    14.93631414619966
_cell_length_b    14.936314146199727
_cell_length_c    13.341276283792837
_cell_angle_alpha    90.0
_cell_angle_beta    90.0
_cell_angle_gamma    119.99999999999984

_symmetry_space_group_name_H-M    'P 1'
loop_
_atom_site_label
_atom_site_type_symbol
_atom_site_fract_x
_atom_site_fract_y
_atom_site_fract_z
_atom_site_occupancy
S2   S   0.411600582488119   0.372466957910724   0.375000000000000   1.0000000
S2   S   0.557313607747221   0.445323470540275   0.375000000000000   1.0000000
N2   N   0.111144948657105   0.055549895578446   0.125283980971818   1.0000000
N2   N   0.611134793841960   0.555580643658234   0.125616791796231   1.0000000
N2   N   0.444454203737700   0.055539288783396   0.125294654539643   1.0000000
N2   N   0.944474387281090   0.555580128080953   0.125282672323415   1.0000000
N2   N   0.777813616967243   0.055573475150289   0.125106054444099   1.0000000
N2   N   0.111129009827450   0.722231171580389   0.624812580022120   1.0000000
N2   N   0.444454203737700   0.722248248287640   0.624705345460357   1.0000000
N2   N   0.277825208124134   0.222230000700677   0.624149416090239   1.0000000
N2   N   0.777809408611235   0.722231973137347   0.624609278882955   1.0000000
N2   N   0.611129361583129   0.222218964770425   0.624627119415768   1.0000000
N2   N   0.944490997473472   0.222253658175445   0.624870692736073   1.0000000
N2   N   0.277786104355734   0.722239274745600   0.125191279732744   1.0000000
N2   N   0.111165391494958   0.222249362414143   0.125373686402251   1.0000000
N2   N   0.444474546325805   0.222219395073093   0.125730527424898   1.0000000
N2   N   0.611129361583129   0.722243730146033   0.125372880584232   1.0000000
N2   N   0.944474387281090   0.722227592533472   0.125282672323415   1.0000000
N2   N   0.777810161273261   0.222242204070954   0.125136076782582   1.0000000
N2   N   0.111131832366844   0.888879736255690   0.624803855976315   1.0000000
N2   N   0.444452464145514   0.888892898739422   0.624862676713396   1.0000000
N2   N   0.277825208124134   0.388928540756786   0.624149416090239   1.0000000
N2   N   0.611134793841960   0.388887483517055   0.624383208203770   1.0000000
N2   N   0.777810161273261   0.888901290535634   0.624863923217418   1.0000000
N2   N   0.944478925295399   0.388921688586994   0.624842049058056   1.0000000
N2   N   0.111144948657105   0.388928386411987   0.125283980971818   1.0000000
N2   N   0.277786104355734   0.888880162943462   0.125191279732744   1.0000000
N2   N   0.611128131659699   0.888904655127791   0.125127011741741   1.0000000
N2   N   0.444497655486227   0.388915494409778   0.125514605727765   1.0000000
N2   N   0.944478925295399   0.888890570041733   0.125157950941944   1.0000000
N2   N   0.777809408611235   0.388910768807216   0.125390721117045   1.0000000
N2   N   0.277797386557910   0.555591670546711   0.624549981336668   1.0000000
N2   N   0.111144948657105   0.055549895578446   0.624716019028183   1.0000000
N2   N   0.611134793841960   0.555580643658234   0.624383208203770   1.0000000
N2   N   0.444454203737700   0.055539288783396   0.624705345460357   1.0000000
N2   N   0.944474387281090   0.555580128080953   0.624717327676585   1.0000000
N2   N   0.111131832366844   0.555585429444482   0.125196144023685   1.0000000
N2   N   0.777813616967243   0.055573475150289   0.624893945555900   1.0000000
N2   N   0.277797386557910   0.055539049344535   0.125450018663331   1.0000000
N2   N   0.444474546325805   0.555588484586048   0.125730527424898   1.0000000
N2   N   0.777796956021499   0.555565144677418   0.125632033883084   1.0000000
N2   N   0.611128131659699   0.055556809865238   0.125127011741741   1.0000000
N2   N   0.444474546325805   0.555588484586048   0.624269472575102   1.0000000
N2   N   0.944490997473472   0.055570672631362   0.125129307263927   1.0000000
N2   N   0.277786104355734   0.722239274745600   0.624808720267256   1.0000000
N2   N   0.111165391494958   0.222249362414143   0.624626313597750   1.0000000
N2   N   0.444474546325805   0.222219395073093   0.624269472575102   1.0000000
N2   N   0.611129361583129   0.722243730146033   0.624627119415768   1.0000000
N2   N   0.944474387281090   0.722227592533472   0.624717327676585   1.0000000
N2   N   0.777810161273261   0.222242204070954   0.624863923217418   1.0000000
N2   N   0.111129009827450   0.722231171580389   0.125187419977880   1.0000000
N2   N   0.444454203737700   0.722248248287640   0.125294654539643   1.0000000
N2   N   0.277825208124134   0.222230000700677   0.125850583909761   1.0000000
N2   N   0.777809408611235   0.722231973137347   0.125390721117045   1.0000000
N2   N   0.611129361583129   0.222218964770425   0.125372880584232   1.0000000
N2   N   0.944490997473472   0.222253658175445   0.125129307263927   1.0000000
N2   N   0.111144948657105   0.388928386411987   0.624716019028183   1.0000000
N2   N   0.277786104355734   0.888880162943462   0.624808720267256   1.0000000
N2   N   0.611128131659699   0.888904655127791   0.624872988258260   1.0000000
N2   N   0.444497655486227   0.388915494409778   0.624485394272235   1.0000000
N2   N   0.944478925295399   0.888890570041733   0.624842049058056   1.0000000
N2   N   0.111131832366844   0.888879736255690   0.125196144023685   1.0000000
N2   N   0.777809408611235   0.388910768807216   0.624609278882955   1.0000000
N2   N   0.444452464145514   0.888892898739422   0.125137323286603   1.0000000
N2   N   0.277825208124134   0.388928540756786   0.125850583909761   1.0000000
N2   N   0.277797386557910   0.555591670546711   0.125450018663331   1.0000000
N2   N   0.611134793841960   0.388887483517055   0.125616791796231   1.0000000
N2   N   0.777810161273261   0.888901290535634   0.125136076782582   1.0000000
N2   N   0.944478925295399   0.388921688586994   0.125157950941944   1.0000000
N2   N   0.111131832366844   0.555585429444482   0.624803855976315   1.0000000
N2   N   0.277797386557910   0.055539049344535   0.624549981336668   1.0000000
N2   N   0.777796956021499   0.555565144677418   0.624367966116916   1.0000000
N2   N   0.611128131659699   0.055556809865238   0.624872988258260   1.0000000
N2   N   0.944490997473472   0.055570672631362   0.624870692736073   1.0000000
N2   N   0.057162521927448   0.111871476257206   0.375000000000000   1.0000000
N2   N   0.556576667943134   0.621719831281471   0.375000000000000   1.0000000
N2   N   0.387611286209711   0.102435729527595   0.375000000000000   1.0000000
N2   N   0.888236069433384   0.610784701383363   0.375000000000000   1.0000000
N2   N   0.724198289077054   0.110987170916057   0.375000000000000   1.0000000
N2   N   0.055550622843545   0.777779816175649   0.875000000000000   1.0000000
N2   N   0.388897132384614   0.777779552242477   0.875000000000000   1.0000000
N2   N   0.222221580626521   0.277777456979928   0.875000000000000   1.0000000
N2   N   0.722221740595374   0.777780449440791   0.875000000000000   1.0000000
N2   N   0.555555985253006   0.277779634744047   0.875000000000000   1.0000000
N2   N   0.888888649603067   0.277774221293651   0.875000000000000   1.0000000
N2   N   0.220687013025391   0.777010173179363   0.375000000000000   1.0000000
N2   N   0.057162521927448   0.278624379003577   0.375000000000000   1.0000000
N2   N   0.382230075247399   0.254524756698013   0.375000000000000   1.0000000
N2   N   0.556383101500239   0.782855286578158   0.375000000000000   1.0000000
N2   N   0.890268697891984   0.779398177260000   0.375000000000000   1.0000000
N2   N   0.724485238688418   0.275997229844370   0.375000000000000   1.0000000
N2   N   0.055552808610961   0.944450288320356   0.875000000000000   1.0000000
N2   N   0.388897132384614   0.944450913475473   0.875000000000000   1.0000000
N2   N   0.222222500500395   0.444437195976051   0.875000000000000   1.0000000
N2   N   0.555554125866935   0.444443729600132   0.875000000000000   1.0000000
N2   N   0.722223647678663   0.944447086519544   0.875000000000000   1.0000000
N2   N   0.888885384332091   0.444437074181643   0.875000000000000   1.0000000
N2   N   0.054642046605813   0.445112894074586   0.375000000000000   1.0000000
N2   N   0.220543374019154   0.941110581442181   0.375000000000000   1.0000000
N2   N   0.556349402996056   0.944841368164691   0.375000000000000   1.0000000
N2   N   0.382230075247399   0.461038651882722   0.375000000000000   1.0000000
N2   N   0.890757614326741   0.946278185019850   0.375000000000000   1.0000000
N2   N   0.726149195160360   0.443149515026379   0.375000000000000   1.0000000
N2   N   0.222223596710003   0.611104411447570   0.875000000000000   1.0000000
N2   N   0.055552206409977   0.111111881466957   0.875000000000000   1.0000000
N2   N   0.555555985253006   0.611109683842295   0.875000000000000   1.0000000
N2   N   0.388894834652139   0.111119842126279   0.875000000000000   1.0000000
N2   N   0.888881085438866   0.611107209386105   0.875000000000000   1.0000000
N2   N   0.054329546173635   0.610999191337983   0.375000000000000   1.0000000
N2   N   0.722223647678663   0.111109894492455   0.875000000000000   1.0000000
N2   N   0.218401939181374   0.104260961058444   0.375000000000000   1.0000000
N2   N   0.387611286209711   0.618508890015459   0.375000000000000   1.0000000
N2   N   0.726149195160360   0.616333013467317   0.375000000000000   1.0000000
N2   N   0.556383101500239   0.106861148255418   0.375000000000000   1.0000000
N2   N   0.388894834652139   0.611108325859203   0.875000000000000   1.0000000
N2   N   0.890976232224483   0.112154782778913   0.375000000000000   1.0000000
N2   N   0.222224876687172   0.777779105010254   0.875000000000000   1.0000000
N2   N   0.055552206409977   0.277773658276355   0.875000000000000   1.0000000
N2   N   0.388891871291125   0.277782343533045   0.875000000000000   1.0000000
N2   N   0.555560303108650   0.777780411195290   0.875000000000000   1.0000000
N2   N   0.888885384332091   0.777781643483783   0.875000000000000   1.0000000
N2   N   0.722221740595374   0.277774624487919   0.875000000000000   1.0000000
N2   N   0.054329546173635   0.776663688168987   0.375000000000000   1.0000000
N2   N   0.388044686646720   0.779826676300687   0.375000000000000   1.0000000
N2   N   0.225221194907187   0.279277264120261   0.375000000000000   1.0000000
N2   N   0.724485238688418   0.781821342177383   0.375000000000000   1.0000000
N2   N   0.556576667943134   0.268190169995000   0.375000000000000   1.0000000
N2   N   0.890757614326741   0.277812762640226   0.375000000000000   1.0000000
N2   N   0.055552808610961   0.444435853623934   0.875000000000000   1.0000000
N2   N   0.222223596710003   0.944452518595769   0.875000000000000   1.0000000
N2   N   0.555559987735033   0.944446660534181   0.875000000000000   1.0000000
N2   N   0.388891871291125   0.444442861091416   0.875000000000000   1.0000000
N2   N   0.888888649603067   0.944447761642750   0.875000000000000   1.0000000
N2   N   0.054642046605813   0.942862485864556   0.375000000000000   1.0000000
N2   N   0.722215774233709   0.444439994276685   0.875000000000000   1.0000000
N2   N   0.388044686646720   0.941551343679369   0.375000000000000   1.0000000
N2   N   0.218401939181374   0.447474311456265   0.375000000000000   1.0000000
N2   N   0.220543374019154   0.612766125910310   0.375000000000000   1.0000000
N2   N   0.724198289077054   0.946544451494334   0.375000000000000   1.0000000
N2   N   0.890268697891984   0.444203853965320   0.375000000000000   1.0000000
N2   N   0.055550622843545   0.611104140001232   0.875000000000000   1.0000000
N2   N   0.222222500500395   0.111118637857680   0.875000000000000   1.0000000
N2   N   0.722215774233709   0.611109113290360   0.875000000000000   1.0000000
N2   N   0.555560303108650   0.111113225246694   0.875000000000000   1.0000000
N2   N   0.888889140791223   0.111111237062283   0.875000000000000   1.0000000
B2   B   0.108234016059466   0.052187995374783   0.375000000000000   1.0000000
B2   B   0.620631697756619   0.579746800232386   0.375000000000000   1.0000000
B2   B   0.445164956833779   0.049999162739941   0.375000000000000   1.0000000
B2   B   0.944277672530564   0.555226283628349   0.375000000000000   1.0000000
B2   B   0.780274017287715   0.056803675310525   0.375000000000000   1.0000000
B2   B   0.111118162745027   0.722225748039177   0.875000000000000   1.0000000
B2   B   0.444455671016314   0.722275605527193   0.875000000000000   1.0000000
B2   B   0.277706475230732   0.222168442565534   0.875000000000000   1.0000000
B2   B   0.777825030869064   0.722295357875880   0.875000000000000   1.0000000
B2   B   0.611146308041765   0.222170935865295   0.875000000000000   1.0000000
B2   B   0.944413802273535   0.222195880948185   0.875000000000000   1.0000000
B2   B   0.276900914742190   0.723401254292339   0.375000000000000   1.0000000
B2   B   0.111677712652606   0.222505522992968   0.375000000000000   1.0000000
B2   B   0.445957718050458   0.209167524410944   0.375000000000000   1.0000000
B2   B   0.614342063400051   0.732283875577283   0.375000000000000   1.0000000
B2   B   0.944277672530564   0.722384722235551   0.375000000000000   1.0000000
B2   B   0.780473832045437   0.221172267723424   0.375000000000000   1.0000000
B2   B   0.111099117574855   0.888881831838023   0.875000000000000   1.0000000
B2   B   0.444460786735268   0.888897060034298   0.875000000000000   1.0000000
B2   B   0.277706475230732   0.388871365998527   0.875000000000000   1.0000000
B2   B   0.611150861030913   0.388869858335490   0.875000000000000   1.0000000
B2   B   0.777798980558019   0.888943821763472   0.875000000000000   1.0000000
B2   B   0.944446865993984   0.388863479257446   0.875000000000000   1.0000000
B2   B   0.108234016059466   0.389379354018011   0.375000000000000   1.0000000
B2   B   0.276900914742190   0.886832993783178   0.375000000000000   1.0000000
B2   B   0.613455277727542   0.892612605401338   0.375000000000000   1.0000000
B2   B   0.944921034451751   0.889829168722250   0.375000000000000   1.0000000
B2   B   0.781658636877274   0.386803544065836   0.375000000000000   1.0000000
B2   B   0.277746978004041   0.555572591108838   0.875000000000000   1.0000000
B2   B   0.111057631370676   0.055525694434657   0.875000000000000   1.0000000
B2   B   0.611150861030913   0.555614336028751   0.875000000000000   1.0000000
B2   B   0.444455671016314   0.055513398822456   0.875000000000000   1.0000000
B2   B   0.944473172375883   0.555554732015085   0.875000000000000   1.0000000
B2   B   0.109704098986893   0.556041669513496   0.375000000000000   1.0000000
B2   B   0.777786340460364   0.055559836896850   0.875000000000000   1.0000000
B2   B   0.275863056298133   0.049920815176857   0.375000000000000   1.0000000
B2   B   0.445957718050458   0.570123526972850   0.375000000000000   1.0000000
B2   B   0.779236342061789   0.556284837697562   0.375000000000000   1.0000000
B2   B   0.613455277727542   0.054176005659532   0.375000000000000   1.0000000
B2   B   0.444435945166228   0.555607507785978   0.875000000000000   1.0000000
B2   B   0.946080657228581   0.056908517483729   0.375000000000000   1.0000000
B2   B   0.277777815189436   0.722236257695945   0.875000000000000   1.0000000
B2   B   0.111032317863921   0.222182825598625   0.875000000000000   1.0000000
B2   B   0.444435945166228   0.222161770713585   0.875000000000000   1.0000000
B2   B   0.611146308041765   0.722308705509799   0.875000000000000   1.0000000
B2   B   0.944473172375883   0.722251773694134   0.875000000000000   1.0000000
B2   B   0.777798980558019   0.222188492127875   0.875000000000000   1.0000000
B2   B   0.109991449766861   0.721662391550094   0.375000000000000   1.0000000
B2   B   0.445164956833779   0.728499127427174   0.375000000000000   1.0000000
B2   B   0.270208077987935   0.211256716740054   0.375000000000000   1.0000000
B2   B   0.781658636877274   0.728188426144766   0.375000000000000   1.0000000
B2   B   0.614342063400051   0.215391521156097   0.375000000000000   1.0000000
B2   B   0.946080657228581   0.222505473078187   0.375000000000000   1.0000000
B2   B   0.111057631370676   0.388865270269347   0.875000000000000   1.0000000
B2   B   0.277777815189436   0.888874890826820   0.875000000000000   1.0000000
B2   B   0.611137440694219   0.888933285521375   0.875000000000000   1.0000000
B2   B   0.444422654610291   0.388877993971809   0.875000000000000   1.0000000
B2   B   0.944446865993984   0.888916720069865   0.875000000000000   1.0000000
B2   B   0.109704098986893   0.886995762806726   0.375000000000000   1.0000000
B2   B   0.777825030869064   0.388863006326513   0.875000000000000   1.0000000
B2   B   0.445210724085835   0.889272028709581   0.375000000000000   1.0000000
B2   B   0.270208077987935   0.392284694581209   0.375000000000000   1.0000000
B2   B   0.275863056298133   0.559275574454613   0.375000000000000   1.0000000
B2   B   0.620631697756619   0.374218230857562   0.375000000000000   1.0000000
B2   B   0.780473832045437   0.892634897655343   0.375000000000000   1.0000000
B2   B   0.944921034451751   0.388425199062830   0.375000000000000   1.0000000
B2   B   0.111099117574855   0.555550619070159   0.875000000000000   1.0000000
B2   B   0.277746978004041   0.055507720228538   0.875000000000000   1.0000000
B2   B   0.777835856968266   0.555584595150800   0.875000000000000   1.0000000
B2   B   0.611137440694219   0.055537488506173   0.875000000000000   1.0000000
B2   B   0.944413802273535   0.055551254658685   0.875000000000000   1.0000000
B2   B   0.055478683465828   0.111027885895885   0.124749042925002   1.0000000
B2   B   0.555623599170926   0.611381730602174   0.124490071718846   1.0000000
B2   B   0.388802171411677   0.110821048953206   0.124789978684294   1.0000000
B2   B   0.889148616408727   0.611240974871035   0.124804401960871   1.0000000
B2   B   0.722265000570911   0.111079707192059   0.124720773714942   1.0000000
B2   B   0.055647479668286   0.777789517825684   0.625228109785608   1.0000000
B2   B   0.388839284267177   0.777853160778522   0.625256311928385   1.0000000
B2   B   0.222041485848851   0.277687409591093   0.625167850652009   1.0000000
B2   B   0.722360538811367   0.777975190596934   0.625320467992921   1.0000000
B2   B   0.555623599170926   0.277575201902088   0.625509928281154   1.0000000
B2   B   0.888944652176724   0.277791281115482   0.625284335775117   1.0000000
B2   B   0.222209481440013   0.777771407386674   0.124766081853720   1.0000000
B2   B   0.055478683465828   0.277784130903279   0.124749042925002   1.0000000
B2   B   0.388772214091541   0.277533780828489   0.124375357206841   1.0000000
B2   B   0.555562230335765   0.777955582979268   0.124708801808233   1.0000000
B2   B   0.889075225103672   0.777893686695517   0.124742776638461   1.0000000
B2   B   0.722360538811367   0.277718681547769   0.124679532007080   1.0000000
B2   B   0.055555569798869   0.944365397527712   0.625264801756110   1.0000000
B2   B   0.388839284267177   0.944319456821990   0.625256311928385   1.0000000
B2   B   0.222079927975293   0.444555036098696   0.625175894580259   1.0000000
B2   B   0.555723375829265   0.444528354581297   0.626088711399800   1.0000000
B2   B   0.722265000570911   0.944518626712188   0.625279226285058   1.0000000
B2   B   0.889075225103672   0.444514871741491   0.625257223361539   1.0000000
B2   B   0.055555569798869   0.444523505604486   0.124735198243889   1.0000000
B2   B   0.222166722301518   0.944274921929053   0.124778081588115   1.0000000
B2   B   0.555549511476263   0.944441422404796   0.124715555460177   1.0000000
B2   B   0.388772214091541   0.444571766596387   0.124375357206841   1.0000000
B2   B   0.888944652176724   0.944486704394576   0.124715664224882   1.0000000
B2   B   0.722520682028307   0.444513367405096   0.124573448633448   1.0000000
B2   B   0.222166722301518   0.611225133705799   0.625221918411885   1.0000000
B2   B   0.055478683465828   0.111027885895885   0.625250957074998   1.0000000
B2   B   0.555623599170926   0.611381730602174   0.625509928281154   1.0000000
B2   B   0.388802171411677   0.110821048953206   0.625210021315706   1.0000000
B2   B   0.889148616408727   0.611240974871035   0.625195598039128   1.0000000
B2   B   0.055647479668286   0.611191295175937   0.124771890214392   1.0000000
B2   B   0.722265000570911   0.111079707192059   0.625279226285058   1.0000000
B2   B   0.222079927975293   0.110858225209933   0.124824105419742   1.0000000
B2   B   0.388802171411677   0.611314455791814   0.124789978684294   1.0000000
B2   B   0.722520682028307   0.611340647956547   0.124573448633448   1.0000000
B2   B   0.555562230335765   0.110939980689832   0.124708801808233   1.0000000
B2   B   0.388802171411677   0.611314455791814   0.625210021315706   1.0000000
B2   B   0.888895900633723   0.111114616983533   0.124738794153044   1.0000000
B2   B   0.222209481440013   0.777771407386674   0.625233918146280   1.0000000
B2   B   0.055478683465828   0.277784130903279   0.625250957074998   1.0000000
B2   B   0.388772214091541   0.277533780828489   0.625624642793159   1.0000000
B2   B   0.555562230335765   0.777955582979268   0.625291198191766   1.0000000
B2   B   0.889075225103672   0.777893686695517   0.625257223361539   1.0000000
B2   B   0.722360538811367   0.277718681547769   0.625320467992921   1.0000000
B2   B   0.055647479668286   0.777789517825684   0.124771890214392   1.0000000
B2   B   0.388839284267177   0.777853160778522   0.124743688071614   1.0000000
B2   B   0.222041485848851   0.277687409591093   0.124832149347991   1.0000000
B2   B   0.722360538811367   0.777975190596934   0.124679532007080   1.0000000
B2   B   0.555623599170926   0.277575201902088   0.124490071718846   1.0000000
B2   B   0.888944652176724   0.277791281115482   0.124715664224882   1.0000000
B2   B   0.055555569798869   0.444523505604486   0.625264801756110   1.0000000
B2   B   0.222166722301518   0.944274921929053   0.625221918411885   1.0000000
B2   B   0.555549511476263   0.944441422404796   0.625284444539822   1.0000000
B2   B   0.388772214091541   0.444571766596387   0.625624642793159   1.0000000
B2   B   0.888944652176724   0.944486704394576   0.625284335775117   1.0000000
B2   B   0.055555569798869   0.944365397527712   0.124735198243889   1.0000000
B2   B   0.722520682028307   0.444513367405096   0.625426551366552   1.0000000
B2   B   0.388839284267177   0.944319456821990   0.124743688071614   1.0000000
B2   B   0.222079927975293   0.444555036098696   0.124824105419742   1.0000000
B2   B   0.222166722301518   0.611225133705799   0.124778081588115   1.0000000
B2   B   0.555723375829265   0.444528354581297   0.123911288600200   1.0000000
B2   B   0.722265000570911   0.944518626712188   0.124720773714942   1.0000000
B2   B   0.889075225103672   0.444514871741491   0.124742776638461   1.0000000
B2   B   0.055647479668286   0.611191295175937   0.625228109785608   1.0000000
B2   B   0.222079927975293   0.110858225209933   0.625175894580259   1.0000000
B2   B   0.722520682028307   0.611340647956547   0.625426551366552   1.0000000
B2   B   0.555562230335765   0.110939980689832   0.625291198191766   1.0000000
B2   B   0.888895900633723   0.111114616983533   0.625261205846956   1.0000000


