data_1
_audit_creation_method   'vasp2cif'
_cell_length_a    14.93631414619966
_cell_length_b    14.936314146199727
_cell_length_c    13.341276283792837
_cell_angle_alpha    90.0
_cell_angle_beta    90.0
_cell_angle_gamma    119.99999999999984

_symmetry_space_group_name_H-M    'P 1'
loop_
_atom_site_label
_atom_site_type_symbol
_atom_site_fract_x
_atom_site_fract_y
_atom_site_fract_z
_atom_site_occupancy
C2   C   0.389967730835288   0.444939191458789   0.375000000000000   1.0000000
O2   O   0.558361409418828   0.444710159069385   0.375000000000000   1.0000000
N2   N   0.111036943679240   0.055543558114079   0.124953717991339   1.0000000
N2   N   0.611012207808033   0.555516395710361   0.125464497391441   1.0000000
N2   N   0.444390662625450   0.055558813806586   0.124994748798586   1.0000000
N2   N   0.944353321094143   0.555536258586020   0.124997311658726   1.0000000
N2   N   0.777719609863286   0.055552047218456   0.124971473317752   1.0000000
N2   N   0.111037356866583   0.722202686900654   0.625021314714882   1.0000000
N2   N   0.444387467170112   0.722217500698303   0.625079060323750   1.0000000
N2   N   0.277692723071373   0.222201396398755   0.625077849195414   1.0000000
N2   N   0.777715484966217   0.722242120677250   0.624971919359099   1.0000000
N2   N   0.611047177241035   0.222226303569654   0.624950453800767   1.0000000
N2   N   0.944389159686564   0.222222644390030   0.625054174567351   1.0000000
N2   N   0.277713046068373   0.722208479241411   0.124969089729993   1.0000000
N2   N   0.111043405291148   0.222217821098831   0.124910061891173   1.0000000
N2   N   0.444377230770757   0.222219352721332   0.125025165386657   1.0000000
N2   N   0.611046463271355   0.722217924525208   0.124998868163994   1.0000000
N2   N   0.944361854573362   0.722211293745476   0.125016847080998   1.0000000
N2   N   0.777728171287757   0.222212949058834   0.124983260354877   1.0000000
N2   N   0.111045989160726   0.888878882334688   0.625020478309526   1.0000000
N2   N   0.444389883064714   0.888889829521087   0.625014435094225   1.0000000
N2   N   0.277668282024271   0.388854868096741   0.625558784777990   1.0000000
N2   N   0.611008587966296   0.388894477987440   0.624462125256743   1.0000000
N2   N   0.777727464500995   0.888910827412063   0.625013777893143   1.0000000
N2   N   0.944381569297951   0.388875963586724   0.625008854311997   1.0000000
N2   N   0.111051080099265   0.388885536810986   0.124894448315463   1.0000000
N2   N   0.277719381039366   0.888886767713715   0.124975035399393   1.0000000
N2   N   0.611044507378514   0.888890483656216   0.124961213825226   1.0000000
N2   N   0.444420766171803   0.388856578778728   0.124486193546298   1.0000000
N2   N   0.944386328223205   0.888905250347041   0.124975896881607   1.0000000
N2   N   0.777704851452542   0.388873942012537   0.125054108136871   1.0000000
N2   N   0.277711981249710   0.555547943214113   0.625112622387047   1.0000000
N2   N   0.111036943679240   0.055543558114079   0.625046282008661   1.0000000
N2   N   0.611012207808033   0.555516395710361   0.624535502608559   1.0000000
N2   N   0.444390662625450   0.055558813806586   0.625005251201414   1.0000000
N2   N   0.944353321094143   0.555536258586020   0.625002688341274   1.0000000
N2   N   0.111042512540486   0.555547985158953   0.124961351477558   1.0000000
N2   N   0.777719609863286   0.055552047218456   0.625028526682248   1.0000000
N2   N   0.277705709924773   0.055542115906069   0.124985822691799   1.0000000
N2   N   0.444404789721392   0.555594783759799   0.124456001128762   1.0000000
N2   N   0.777693337065704   0.555558492577549   0.125117765790069   1.0000000
N2   N   0.611045630595067   0.055549282266402   0.125002466169953   1.0000000
N2   N   0.444404789721392   0.555594783759799   0.625543998871238   1.0000000
N2   N   0.944386389343148   0.055559917762595   0.124976460895478   1.0000000
N2   N   0.277713046068373   0.722208479241411   0.625030910270007   1.0000000
N2   N   0.111043405291148   0.222217821098831   0.625089938108827   1.0000000
N2   N   0.444377230770757   0.222219352721332   0.624974834613343   1.0000000
N2   N   0.611046463271355   0.722217924525208   0.625001131836006   1.0000000
N2   N   0.944361854573362   0.722211293745476   0.624983152919002   1.0000000
N2   N   0.777728171287757   0.222212949058834   0.625016739645123   1.0000000
N2   N   0.111037356866583   0.722202686900654   0.124978685285118   1.0000000
N2   N   0.444387467170112   0.722217500698303   0.124920939676249   1.0000000
N2   N   0.277692723071373   0.222201396398755   0.124922150804586   1.0000000
N2   N   0.777715484966217   0.722242120677250   0.125028080640901   1.0000000
N2   N   0.611047177241035   0.222226303569654   0.125049546199233   1.0000000
N2   N   0.944389159686564   0.222222644390030   0.124945825432649   1.0000000
N2   N   0.111051080099265   0.388885536810986   0.625105551684537   1.0000000
N2   N   0.277719381039366   0.888886767713715   0.625024964600606   1.0000000
N2   N   0.611044507378514   0.888890483656216   0.625038786174774   1.0000000
N2   N   0.444420766171803   0.388856578778728   0.625513806453702   1.0000000
N2   N   0.944386328223205   0.888905250347041   0.625024103118393   1.0000000
N2   N   0.111045989160726   0.888878882334688   0.124979521690474   1.0000000
N2   N   0.777704851452542   0.388873942012537   0.624945891863129   1.0000000
N2   N   0.444389883064714   0.888889829521087   0.124985564905775   1.0000000
N2   N   0.277668282024271   0.388854868096741   0.124441215222010   1.0000000
N2   N   0.277711981249710   0.555547943214113   0.124887377612953   1.0000000
N2   N   0.611008587966296   0.388894477987440   0.125537874743257   1.0000000
N2   N   0.777727464500995   0.888910827412063   0.124986222106857   1.0000000
N2   N   0.944381569297951   0.388875963586724   0.124991145688003   1.0000000
N2   N   0.111042512540486   0.555547985158953   0.625038648522442   1.0000000
N2   N   0.277705709924773   0.055542115906069   0.625014177308201   1.0000000
N2   N   0.777693337065704   0.555558492577549   0.624882234209931   1.0000000
N2   N   0.611045630595067   0.055549282266402   0.624997533830047   1.0000000
N2   N   0.944386389343148   0.055559917762595   0.625023539104521   1.0000000
N2   N   0.054888795175396   0.110249699944783   0.375000000000000   1.0000000
N2   N   0.557693858348693   0.612729798555825   0.375000000000000   1.0000000
N2   N   0.388827056048254   0.110117866924618   0.375000000000000   1.0000000
N2   N   0.889098169401828   0.611228554941803   0.375000000000000   1.0000000
N2   N   0.722290116028770   0.111232046122215   0.375000000000000   1.0000000
N2   N   0.055622994235475   0.777786247870492   0.875000000000000   1.0000000
N2   N   0.388960740117515   0.777791838021190   0.875000000000000   1.0000000
N2   N   0.222287376684668   0.277790575062377   0.875000000000000   1.0000000
N2   N   0.722291809408151   0.777789837889611   0.875000000000000   1.0000000
N2   N   0.555632243922804   0.277802318967051   0.875000000000000   1.0000000
N2   N   0.888964910122885   0.277802837553846   0.875000000000000   1.0000000
N2   N   0.222146514378565   0.777807405491884   0.375000000000000   1.0000000
N2   N   0.054901619385362   0.277388441155273   0.375000000000000   1.0000000
N2   N   0.389746423789859   0.275933148562088   0.375000000000000   1.0000000
N2   N   0.556102881769476   0.778412230773953   0.375000000000000   1.0000000
N2   N   0.888861515110425   0.777570115322718   0.375000000000000   1.0000000
N2   N   0.722260068306396   0.277930400520121   0.375000000000000   1.0000000
N2   N   0.055634848078444   0.944458533585914   0.875000000000000   1.0000000
N2   N   0.388971601861974   0.944475026561834   0.875000000000000   1.0000000
N2   N   0.222290305018626   0.444462041511874   0.875000000000000   1.0000000
N2   N   0.555633273587041   0.444455041801367   0.875000000000000   1.0000000
N2   N   0.722282903022357   0.944456928769147   0.875000000000000   1.0000000
N2   N   0.888956199433702   0.444451905175078   0.875000000000000   1.0000000
N2   N   0.054778907404941   0.444503027557115   0.375000000000000   1.0000000
N2   N   0.222092687089645   0.944142550480548   0.375000000000000   1.0000000
N2   N   0.555734980318752   0.944731977393431   0.375000000000000   1.0000000
N2   N   0.888969482787630   0.944349858086969   0.375000000000000   1.0000000
N2   N   0.722492315334361   0.444793096519125   0.375000000000000   1.0000000
N2   N   0.222293705141927   0.611136247727300   0.875000000000000   1.0000000
N2   N   0.055623304767963   0.111116904480726   0.875000000000000   1.0000000
N2   N   0.555626826716461   0.611117456327202   0.875000000000000   1.0000000
N2   N   0.388972577808134   0.111135317624206   0.875000000000000   1.0000000
N2   N   0.888949220652214   0.611119544155610   0.875000000000000   1.0000000
N2   N   0.055521630302930   0.611241611323023   0.375000000000000   1.0000000
N2   N   0.722282494475939   0.111113068969533   0.875000000000000   1.0000000
N2   N   0.222142524129945   0.110637004987564   0.375000000000000   1.0000000
N2   N   0.389224544435709   0.613323315648082   0.375000000000000   1.0000000
N2   N   0.722079492777570   0.610501639032547   0.375000000000000   1.0000000
N2   N   0.555648649543757   0.111219885626619   0.375000000000000   1.0000000
N2   N   0.388965002313269   0.611124734259803   0.875000000000000   1.0000000
N2   N   0.888729328495713   0.110956630912796   0.375000000000000   1.0000000
N2   N   0.222287491034765   0.777792899683539   0.875000000000000   1.0000000
N2   N   0.055631854578213   0.277804018878937   0.875000000000000   1.0000000
N2   N   0.388958767189563   0.277793520231237   0.875000000000000   1.0000000
N2   N   0.555616075324087   0.777776935287963   0.875000000000000   1.0000000
N2   N   0.888961009340207   0.777788700818897   0.875000000000000   1.0000000
N2   N   0.722299142011899   0.277787763839349   0.875000000000000   1.0000000
N2   N   0.055567958586447   0.777734198332192   0.375000000000000   1.0000000
N2   N   0.388910777543150   0.778570263677312   0.375000000000000   1.0000000
N2   N   0.220395207716943   0.275801367947159   0.375000000000000   1.0000000
N2   N   0.723142444522588   0.778390690820107   0.375000000000000   1.0000000
N2   N   0.555703388723124   0.278112669045996   0.375000000000000   1.0000000
N2   N   0.888639261347294   0.277734343746006   0.375000000000000   1.0000000
N2   N   0.055633039603704   0.444471501954934   0.875000000000000   1.0000000
N2   N   0.222300276805949   0.944466411850540   0.875000000000000   1.0000000
N2   N   0.555614324798375   0.944455399615584   0.875000000000000   1.0000000
N2   N   0.388960057670827   0.444450907771126   0.875000000000000   1.0000000
N2   N   0.888960026030873   0.944462334561654   0.875000000000000   1.0000000
N2   N   0.055448458960750   0.944156623961617   0.375000000000000   1.0000000
N2   N   0.722290272482253   0.444449194036427   0.875000000000000   1.0000000
N2   N   0.388863300050811   0.944360736924245   0.375000000000000   1.0000000
N2   N   0.220373529326385   0.444237956226070   0.375000000000000   1.0000000
N2   N   0.222046993383544   0.611313584297332   0.375000000000000   1.0000000
N2   N   0.722497394711456   0.944672623919715   0.375000000000000   1.0000000
N2   N   0.888710566851655   0.444568525534476   0.375000000000000   1.0000000
N2   N   0.055622343677014   0.611129644851603   0.875000000000000   1.0000000
N2   N   0.222286234276531   0.111111401529448   0.875000000000000   1.0000000
N2   N   0.722295812741291   0.611128368605982   0.875000000000000   1.0000000
N2   N   0.555626346106018   0.111121941361603   0.875000000000000   1.0000000
N2   N   0.888949984764271   0.111120195056012   0.875000000000000   1.0000000
B2   B   0.111074996923577   0.055377847862274   0.375000000000000   1.0000000
B2   B   0.612349278237162   0.558394964824038   0.375000000000000   1.0000000
B2   B   0.444416623510802   0.055003378244146   0.375000000000000   1.0000000
B2   B   0.944760277373812   0.555776398860869   0.375000000000000   1.0000000
B2   B   0.777923173802886   0.055653621769916   0.375000000000000   1.0000000
B2   B   0.111205172744961   0.722226893206048   0.875000000000000   1.0000000
B2   B   0.444527699428953   0.722191181216131   0.875000000000000   1.0000000
B2   B   0.277826633540695   0.222267789385269   0.875000000000000   1.0000000
B2   B   0.777886040976721   0.722252124951233   0.875000000000000   1.0000000
B2   B   0.611181323367234   0.222261682587881   0.875000000000000   1.0000000
B2   B   0.944536368747618   0.222283286955365   0.875000000000000   1.0000000
B2   B   0.277735427285249   0.722198225045667   0.375000000000000   1.0000000
B2   B   0.110391733309671   0.221371661135483   0.375000000000000   1.0000000
B2   B   0.444153409059906   0.220551199201515   0.375000000000000   1.0000000
B2   B   0.612258647346656   0.723405917101004   0.375000000000000   1.0000000
B2   B   0.944726456859397   0.722279511412901   0.375000000000000   1.0000000
B2   B   0.777930268552226   0.222222970416748   0.375000000000000   1.0000000
B2   B   0.111260454191081   0.888955109337172   0.875000000000000   1.0000000
B2   B   0.444579814313303   0.888945746240950   0.875000000000000   1.0000000
B2   B   0.277833745730699   0.388868531230346   0.875000000000000   1.0000000
B2   B   0.611140032256102   0.388858990077129   0.875000000000000   1.0000000
B2   B   0.777913103322286   0.888961035066420   0.875000000000000   1.0000000
B2   B   0.944512321840569   0.388864960670432   0.875000000000000   1.0000000
B2   B   0.110450170226131   0.388896786395146   0.375000000000000   1.0000000
B2   B   0.277689021635166   0.888755887135159   0.375000000000000   1.0000000
B2   B   0.611337887998633   0.889190377496823   0.375000000000000   1.0000000
B2   B   0.944460465100629   0.888830831318332   0.375000000000000   1.0000000
B2   B   0.778239842235842   0.388815059924438   0.375000000000000   1.0000000
B2   B   0.277855615026588   0.555586463816367   0.875000000000000   1.0000000
B2   B   0.111217061858065   0.055562574486052   0.875000000000000   1.0000000
B2   B   0.611160078932226   0.555601043067350   0.875000000000000   1.0000000
B2   B   0.444554444836570   0.055583519027747   0.875000000000000   1.0000000
B2   B   0.944504152538611   0.555585460568924   0.875000000000000   1.0000000
B2   B   0.111202478141811   0.555639933225150   0.375000000000000   1.0000000
B2   B   0.777864117504094   0.055555859279808   0.875000000000000   1.0000000
B2   B   0.277579562534028   0.055090928176967   0.375000000000000   1.0000000
B2   B   0.445160551250073   0.557640731573620   0.375000000000000   1.0000000
B2   B   0.778794337574571   0.555920082324027   0.375000000000000   1.0000000
B2   B   0.611195818275432   0.055576927651298   0.375000000000000   1.0000000
B2   B   0.444553214655517   0.555576608404265   0.875000000000000   1.0000000
B2   B   0.944218817433947   0.055258968665187   0.375000000000000   1.0000000
B2   B   0.277824712692873   0.722186650954678   0.875000000000000   1.0000000
B2   B   0.111271578374221   0.222305649395518   0.875000000000000   1.0000000
B2   B   0.444566074222540   0.222305817565296   0.875000000000000   1.0000000
B2   B   0.611135345168181   0.722171250253890   0.875000000000000   1.0000000
B2   B   0.944487523299317   0.722192151341358   0.875000000000000   1.0000000
B2   B   0.777929966714545   0.222277231145959   0.875000000000000   1.0000000
B2   B   0.111240589383276   0.722279588445901   0.375000000000000   1.0000000
B2   B   0.444455076045446   0.723129801416152   0.375000000000000   1.0000000
B2   B   0.277532592803855   0.222130981746692   0.375000000000000   1.0000000
B2   B   0.778084745639369   0.722523165331226   0.375000000000000   1.0000000
B2   B   0.611255885292028   0.222050640371648   0.375000000000000   1.0000000
B2   B   0.944286060752618   0.222118054728208   0.375000000000000   1.0000000
B2   B   0.111248608377322   0.388927523946398   0.875000000000000   1.0000000
B2   B   0.277854369700747   0.888942831371004   0.875000000000000   1.0000000
B2   B   0.611147751390254   0.888901684055692   0.875000000000000   1.0000000
B2   B   0.444491657211645   0.388899138795827   0.875000000000000   1.0000000
B2   B   0.944526175523075   0.888942051738093   0.875000000000000   1.0000000
B2   B   0.111177056911808   0.888818655203711   0.375000000000000   1.0000000
B2   B   0.777885601037924   0.388879025635800   0.875000000000000   1.0000000
B2   B   0.444599818315929   0.889164629782296   0.375000000000000   1.0000000
B2   B   0.276172508919713   0.387870522949258   0.375000000000000   1.0000000
B2   B   0.277816164381525   0.555449885326879   0.375000000000000   1.0000000
B2   B   0.613287986013442   0.387506705759488   0.375000000000000   1.0000000
B2   B   0.778306267934220   0.889374114865685   0.375000000000000   1.0000000
B2   B   0.944191621810347   0.388830638592802   0.375000000000000   1.0000000
B2   B   0.111262947154306   0.555629033992620   0.875000000000000   1.0000000
B2   B   0.277825525226879   0.055536871864057   0.875000000000000   1.0000000
B2   B   0.777918810327558   0.555624266433248   0.875000000000000   1.0000000
B2   B   0.611143233295172   0.055511159948556   0.875000000000000   1.0000000
B2   B   0.944498109446418   0.055535148439752   0.875000000000000   1.0000000
B2   B   0.055557510103700   0.111159183399879   0.125040826744366   1.0000000
B2   B   0.555249872193750   0.611065600930637   0.125057827581736   1.0000000
B2   B   0.388799884914622   0.111073441975263   0.125046119288118   1.0000000
B2   B   0.888828261121081   0.611129423504878   0.125017604535677   1.0000000
B2   B   0.722193737247764   0.111087816489065   0.125003085631005   1.0000000
B2   B   0.055520944278595   0.777758459068569   0.624983384270296   1.0000000
B2   B   0.388832362450322   0.777701012620760   0.624934264579273   1.0000000
B2   B   0.222210011112248   0.277913927640121   0.624928155117200   1.0000000
B2   B   0.722137718354880   0.777768464221290   0.624994065779114   1.0000000
B2   B   0.555369177440231   0.277686491243497   0.624913327626775   1.0000000
B2   B   0.888839600570341   0.277769397525038   0.624988632463866   1.0000000
B2   B   0.222109858764782   0.777706650536162   0.125042014167555   1.0000000
B2   B   0.055595751845499   0.277856982420516   0.125050149640853   1.0000000
B2   B   0.388786682030301   0.277878497136340   0.124982766925496   1.0000000
B2   B   0.555373757976636   0.777694336352760   0.125042817316222   1.0000000
B2   B   0.888754696242311   0.777772885406470   0.124996311004318   1.0000000
B2   B   0.722198128375009   0.277812533816524   0.124997740994596   1.0000000
B2   B   0.055534513722522   0.944539308103684   0.624991153040939   1.0000000
B2   B   0.388845441791989   0.944472085249497   0.624965786395541   1.0000000
B2   B   0.222187940382386   0.444360912416376   0.624918256615213   1.0000000
B2   B   0.555203020775039   0.444342908380247   0.625528615326672   1.0000000
B2   B   0.722189064307191   0.944494648237658   0.624992903564011   1.0000000
B2   B   0.888780786423496   0.444387086327245   0.624989244037618   1.0000000
B2   B   0.055564137686045   0.444399027765853   0.125048182511320   1.0000000
B2   B   0.222137635245519   0.944454212079244   0.125028809549102   1.0000000
B2   B   0.555456887945126   0.944422203732969   0.125030729673329   1.0000000
B2   B   0.388756393897793   0.444428054805165   0.125969632405921   1.0000000
B2   B   0.888816072852926   0.944482024646973   0.125014715987047   1.0000000
B2   B   0.722213862889582   0.444437056289560   0.125083432621422   1.0000000
B2   B   0.222179524224667   0.611048083822717   0.624911007210908   1.0000000
B2   B   0.055557510103700   0.111159183399879   0.624959173255634   1.0000000
B2   B   0.555249872193750   0.611065600930637   0.624942172418263   1.0000000
B2   B   0.388799884914622   0.111073441975263   0.624953880711882   1.0000000
B2   B   0.888828261121081   0.611129423504878   0.624982395464322   1.0000000
B2   B   0.055547412339360   0.611134397232946   0.125022063321773   1.0000000
B2   B   0.722193737247764   0.111087816489065   0.624996914368995   1.0000000
B2   B   0.222104280713973   0.111151315620180   0.125056246280657   1.0000000
B2   B   0.388841558426035   0.611058667154601   0.125059490529653   1.0000000
B2   B   0.722173493170591   0.611204753321382   0.125062703164800   1.0000000
B2   B   0.555402336492873   0.111046570364434   0.125026091398667   1.0000000
B2   B   0.388841558426035   0.611058667154601   0.624940509470347   1.0000000
B2   B   0.888794938031210   0.111090097358489   0.125027061099429   1.0000000
B2   B   0.222109858764782   0.777706650536162   0.624957985832445   1.0000000
B2   B   0.055595751845499   0.277856982420516   0.624949850359147   1.0000000
B2   B   0.388786682030301   0.277878497136340   0.625017233074504   1.0000000
B2   B   0.555373757976636   0.777694336352760   0.624957182683778   1.0000000
B2   B   0.888754696242311   0.777772885406470   0.625003688995681   1.0000000
B2   B   0.722198128375009   0.277812533816524   0.625002259005404   1.0000000
B2   B   0.055520944278595   0.777758459068569   0.125016615729704   1.0000000
B2   B   0.388832362450322   0.777701012620760   0.125065735420727   1.0000000
B2   B   0.222210011112248   0.277913927640121   0.125071844882800   1.0000000
B2   B   0.722137718354880   0.777768464221290   0.125005934220886   1.0000000
B2   B   0.555369177440231   0.277686491243497   0.125086672373225   1.0000000
B2   B   0.888839600570341   0.277769397525038   0.125011367536134   1.0000000
B2   B   0.055564137686045   0.444399027765853   0.624951817488679   1.0000000
B2   B   0.222137635245519   0.944454212079244   0.624971190450898   1.0000000
B2   B   0.555456887945126   0.944422203732969   0.624969270326671   1.0000000
B2   B   0.388756393897793   0.444428054805165   0.624030367594079   1.0000000
B2   B   0.888816072852926   0.944482024646973   0.624985284012953   1.0000000
B2   B   0.055534513722522   0.944539308103684   0.125008846959061   1.0000000
B2   B   0.722213862889582   0.444437056289560   0.624916567378577   1.0000000
B2   B   0.388845441791989   0.944472085249497   0.125034213604458   1.0000000
B2   B   0.222187940382386   0.444360912416376   0.125081743384787   1.0000000
B2   B   0.222179524224667   0.611048083822717   0.125088992789092   1.0000000
B2   B   0.555203020775039   0.444342908380247   0.124471384673328   1.0000000
B2   B   0.722189064307191   0.944494648237658   0.125007096435989   1.0000000
B2   B   0.888780786423496   0.444387086327245   0.125010755962382   1.0000000
B2   B   0.055547412339360   0.611134397232946   0.624977936678227   1.0000000
B2   B   0.222104280713973   0.111151315620180   0.624943753719343   1.0000000
B2   B   0.722173493170591   0.611204753321382   0.624937296835200   1.0000000
B2   B   0.555402336492873   0.111046570364434   0.624973908601333   1.0000000
B2   B   0.888794938031210   0.111090097358489   0.624972938900571   1.0000000
B2   B   0.441662453016098   0.386143287050858   0.375000000000000   1.0000000


