data_1
_audit_creation_method   'vasp2cif'
_cell_length_a    17.52789999999977
_cell_length_b    17.52789999999977
_cell_length_c    15.0
_cell_angle_alpha    90.0
_cell_angle_beta    90.0
_cell_angle_gamma    119.99999999999916

_symmetry_space_group_name_H-M    'P 1'
loop_
_atom_site_label
_atom_site_type_symbol
_atom_site_fract_x
_atom_site_fract_y
_atom_site_fract_z
_atom_site_occupancy
B2   B   0.903655650741636   0.954176495412886   0.111120437377728   1.0000000
B2   B   0.903727069857617   0.097043295869589   0.111116373991892   1.0000000
B2   B   0.903754462769296   0.239850488265302   0.111142159622884   1.0000000
B2   B   0.903727841873056   0.382666215878036   0.111141028307117   1.0000000
B2   B   0.903658196359743   0.525467465898359   0.111119508277717   1.0000000
B2   B   0.903567906854306   0.668293481412802   0.111110381077289   1.0000000
B2   B   0.903578103338319   0.811244995943534   0.111143935023556   1.0000000
B2   B   0.046574031842192   0.954216841635545   0.111121591605943   1.0000000
B2   B   0.046601730122393   0.097123941734306   0.111122738298067   1.0000000
B2   B   0.046661177054547   0.239970926277281   0.111125698787345   1.0000000
B2   B   0.046668329763354   0.382659001131048   0.111108897612829   1.0000000
B2   B   0.046609217977258   0.525459051640119   0.111131830316276   1.0000000
B2   B   0.046557416933256   0.668327305385808   0.111114811522641   1.0000000
B2   B   0.046539036499301   0.811255126345566   0.111121691011563   1.0000000
B2   B   0.189506516756982   0.954229334111934   0.111131822504254   1.0000000
B2   B   0.189539929294248   0.097207634803289   0.111140035165086   1.0000000
B2   B   0.189582865482372   0.240126965955450   0.111139655745224   1.0000000
B2   B   0.189772689200410   0.382880587013719   0.111112289752410   1.0000000
B2   B   0.189579921316480   0.525409400441445   0.111113061740629   1.0000000
B2   B   0.189529531613224   0.668294224364661   0.111138409262214   1.0000000
B2   B   0.189513699234066   0.811258768023811   0.111140891090182   1.0000000
B2   B   0.332445747369118   0.954213820084577   0.111139583212270   1.0000000
B2   B   0.332477986280253   0.097197194541268   0.111140353245648   1.0000000
B2   B   0.332501538955923   0.240170458796799   0.111144439333242   1.0000000
B2   B   0.333514089393900   0.383619115328556   0.111141723985781   1.0000000
B2   B   0.333517803705300   0.525847592409745   0.111127232314946   1.0000000
B2   B   0.332495255146732   0.668262370631843   0.111143650973633   1.0000000
B2   B   0.332476864200257   0.811244410574043   0.111155075151135   1.0000000
B2   B   0.475319270544482   0.954162966431156   0.111136984524948   1.0000000
B2   B   0.475310961287610   0.097112062579105   0.111145121927478   1.0000000
B2   B   0.475347540373905   0.240112707578201   0.111140255036401   1.0000000
B2   B   0.474921641811231   0.383612979721321   0.111105045972369   1.0000000
B2   B   0.474915245686906   0.667236460059108   0.111122801046236   1.0000000
B2   B   0.475349853368244   0.811177409348792   0.111128676441145   1.0000000
B2   B   0.618107713079639   0.954095489310513   0.111115927985861   1.0000000
B2   B   0.618106074231130   0.097029993818433   0.111150335473729   1.0000000
B2   B   0.618096178405561   0.239964953633662   0.111153752038828   1.0000000
B2   B   0.617887539332284   0.382870500091383   0.111113120182888   1.0000000
B2   B   0.617135639569047   0.525828913047612   0.111111786688330   1.0000000
B2   B   0.617130030834257   0.667229457182190   0.111142516907173   1.0000000
B2   B   0.617883374211379   0.810986709754501   0.111127687547946   1.0000000
B2   B   0.760795952970385   0.954114969288338   0.111136511023892   1.0000000
B2   B   0.760903298504365   0.097005170621222   0.111148056369938   1.0000000
B2   B   0.760901638095582   0.239856141589687   0.111164673879958   1.0000000
B2   B   0.760791632782235   0.382669955544071   0.111150136875168   1.0000000
B2   B   0.760647933418216   0.525422936687883   0.111128633762270   1.0000000
B2   B   0.760590657889329   0.668274748513542   0.111134663921891   1.0000000
B2   B   0.760637433777381   0.811191567419677   0.111146046077251   1.0000000
N2   N   0.951448308092647   0.906652662005314   0.111119331030562   1.0000000
N2   N   0.951330550304339   0.049444653868569   0.111104505639429   1.0000000
N2   N   0.951245069929033   0.192203277843186   0.111113770439377   1.0000000
N2   N   0.951242701892584   0.335004269329951   0.111118662631142   1.0000000
N2   N   0.951335690763028   0.477871682218213   0.111118662195276   1.0000000
N2   N   0.951441413059539   0.620772018888423   0.111098930558534   1.0000000
N2   N   0.951482192420801   0.763723832847392   0.111116474866615   1.0000000
N2   N   0.094233493364742   0.906534725212167   0.111107282100156   1.0000000
N2   N   0.094131709173525   0.049337941007220   0.111116891097383   1.0000000
N2   N   0.093950003552520   0.192085435778916   0.111117273435519   1.0000000
N2   N   0.093917260322272   0.334942172597645   0.111095226132314   1.0000000
N2   N   0.093951255420643   0.477833695965499   0.111099856733485   1.0000000
N2   N   0.094126419379105   0.620770772340572   0.111115895221677   1.0000000
N2   N   0.094234236536570   0.763671796724089   0.111107306085931   1.0000000
N2   N   0.237098127912427   0.906537634320023   0.111128211373873   1.0000000
N2   N   0.237048277972927   0.049289075286009   0.111131569251767   1.0000000
N2   N   0.236812547853684   0.191922936486277   0.111124404712559   1.0000000
N2   N   0.236459982345664   0.334600079678481   0.111125062411901   1.0000000
N2   N   0.236462919693641   0.477831003935072   0.111099961467165   1.0000000
N2   N   0.236804469019834   0.620845417560436   0.111122618134991   1.0000000
N2   N   0.237043865584223   0.763726232376538   0.111131103699173   1.0000000
N2   N   0.380004346897578   0.906647328864886   0.111128519555088   1.0000000
N2   N   0.380005197568043   0.049328658252242   0.111126556211800   1.0000000
N2   N   0.379921744001632   0.191911344786828   0.111125566421167   1.0000000
N2   N   0.379488477679065   0.334156781851817   0.111113527454912   1.0000000
N2   N   0.374991208066729   0.475471016821179   0.111097730803848   1.0000000
N2   N   0.379487501672456   0.621273929778644   0.111109018638881   1.0000000
N2   N   0.379914263181353   0.763956668371475   0.111128852486524   1.0000000
N2   N   0.522932770959675   0.906812047916016   0.111111003576496   1.0000000
N2   N   0.522904701902208   0.049433710299417   0.111127554014097   1.0000000
N2   N   0.522929128675187   0.192072382892767   0.111130200299303   1.0000000
N2   N   0.522934190024398   0.334581886240261   0.111108094111459   1.0000000
N2   N   0.525289536522675   0.475464904628360   0.111074529302881   1.0000000
N2   N   0.525283630313458   0.625757165807453   0.111093344453868   1.0000000
N2   N   0.522930778281270   0.764296625310212   0.111115897746720   1.0000000
N2   N   0.665824075088497   0.906848040258179   0.111112268661858   1.0000000
N2   N   0.665759014269999   0.049517546998444   0.111125742665441   1.0000000
N2   N   0.665754208945613   0.192200406445578   0.111146078422692   1.0000000
N2   N   0.665815512271997   0.334940824997417   0.111125732621614   1.0000000
N2   N   0.666175042124610   0.477824282688930   0.111107917604977   1.0000000
N2   N   0.666601400446336   0.621268370788037   0.111109473536671   1.0000000
N2   N   0.666162913777995   0.764297780119892   0.111126687926067   1.0000000
N2   N   0.808685972629312   0.906827004204737   0.111122238153114   1.0000000
N2   N   0.808563005528930   0.049527841703455   0.111115600710103   1.0000000
N2   N   0.808520258907243   0.192238330162509   0.111137415956444   1.0000000
N2   N   0.808555100410989   0.335008697540646   0.111134406737649   1.0000000
N2   N   0.808690478838890   0.477842713128869   0.111114268216044   1.0000000
N2   N   0.808850818551078   0.620851567590186   0.111109051195678   1.0000000
N2   N   0.808852094685320   0.763968352948840   0.111129324028579   1.0000000


