data_1
_audit_creation_method   'vasp2cif'
_cell_length_a    17.52789999999977
_cell_length_b    17.52789999999977
_cell_length_c    15.0
_cell_angle_alpha    90.0
_cell_angle_beta    90.0
_cell_angle_gamma    119.99999999999916

_symmetry_space_group_name_H-M    'P 1'
loop_
_atom_site_label
_atom_site_type_symbol
_atom_site_fract_x
_atom_site_fract_y
_atom_site_fract_z
_atom_site_occupancy
B2   B   0.904924861586839   0.951451647136445   0.120177355597978   1.0000000
B2   B   0.904390873259335   0.093824223318261   0.117874606117894   1.0000000
B2   B   0.904464887081194   0.236603052139359   0.117014085780726   1.0000000
B2   B   0.904858656721932   0.379516083049542   0.118554528813575   1.0000000
B2   B   0.905657983261045   0.522630244341660   0.121793481584675   1.0000000
B2   B   0.906108174509463   0.665850826540382   0.123880147175333   1.0000000
B2   B   0.905607974291408   0.808909179956592   0.122617210091134   1.0000000
B2   B   0.047686395226206   0.951397389062598   0.123354469145506   1.0000000
B2   B   0.047237360338238   0.093918342684747   0.120402253785460   1.0000000
B2   B   0.047043553933320   0.236784324742788   0.116788848279522   1.0000000
B2   B   0.047029187329371   0.379691500235780   0.115619326779135   1.0000000
B2   B   0.047497456876358   0.522699628008508   0.119523759995730   1.0000000
B2   B   0.047860662604701   0.665756659977688   0.123587575430767   1.0000000
B2   B   0.047897530484848   0.808669336933607   0.124787975607311   1.0000000
B2   B   0.190199659745856   0.951177063433389   0.122981167032986   1.0000000
B2   B   0.190020056889062   0.093739093800454   0.120179199468680   1.0000000
B2   B   0.189211525324822   0.236313191408719   0.115142656954198   1.0000000
B2   B   0.189060610360196   0.379800004644696   0.108043620986005   1.0000000
B2   B   0.189321493337264   0.522746790665679   0.109579386153465   1.0000000
B2   B   0.189616416442581   0.665750716237960   0.117465225065154   1.0000000
B2   B   0.190137033778362   0.808558691238827   0.122248602069194   1.0000000
B2   B   0.332732783513625   0.951012019199641   0.120217503969131   1.0000000
B2   B   0.332695606633583   0.093261349125144   0.118481179763884   1.0000000
B2   B   0.331826464037102   0.235025957368755   0.110816459796274   1.0000000
B2   B   0.329043732893928   0.379331044867684   0.095249945169522   1.0000000
B2   B   0.330331281201441   0.522054908611581   0.084393126325989   1.0000000
B2   B   0.330754771463462   0.665832885765150   0.101742607198363   1.0000000
B2   B   0.332341331075363   0.808583601286988   0.115344884325592   1.0000000
B2   B   0.475416495699205   0.951170195617805   0.116078536116090   1.0000000
B2   B   0.475651011143120   0.092978549310972   0.117081190936493   1.0000000
B2   B   0.475485293232628   0.233904126097124   0.111420246471229   1.0000000
B2   B   0.471896570670691   0.367946999658639   0.097850477971912   1.0000000
B2   B   0.534933265817484   0.638680340879419   0.030652458397391   1.0000000
B2   B   0.469842413350314   0.669865290454941   0.069632948368730   1.0000000
B2   B   0.474681848866464   0.809480708975052   0.105789195129051   1.0000000
B2   B   0.618284440239089   0.950938362950749   0.112207137137995   1.0000000
B2   B   0.618665143207510   0.093368350059774   0.115762854961581   1.0000000
B2   B   0.619095346029411   0.235624520882047   0.114120738227487   1.0000000
B2   B   0.620447590140944   0.377986312151265   0.106998455550286   1.0000000
B2   B   0.630415396004857   0.525979524646630   0.091875412720800   1.0000000
B2   B   0.628541754781443   0.669982632891033   0.077956868093337   1.0000000
B2   B   0.618035197107654   0.808482635560539   0.101302460531166   1.0000000
B2   B   0.761460954748008   0.950989932301492   0.114253413229814   1.0000000
B2   B   0.761529834184052   0.093631120823649   0.115526790945984   1.0000000
B2   B   0.761891082999206   0.236324429580876   0.116339796073143   1.0000000
B2   B   0.762697521371161   0.379154058710946   0.116154504403532   1.0000000
B2   B   0.764504071082405   0.522663111473886   0.115453087243828   1.0000000
B2   B   0.765385047332551   0.666596725011402   0.114761241732912   1.0000000
B2   B   0.762953856512115   0.809326072236290   0.113896692329995   1.0000000
In2   In   0.491425185587141   0.494077041655262   0.017759320297129   1.0000000
N2   N   0.952429217041568   0.903752543391438   0.122654195676933   1.0000000
N2   N   0.952146354919264   0.046366662228790   0.119888896866635   1.0000000
N2   N   0.951936868269375   0.188982484042330   0.117520058981539   1.0000000
N2   N   0.951953650685460   0.331804048977693   0.117376734359223   1.0000000
N2   N   0.952308507473133   0.474705004091736   0.120717093395517   1.0000000
N2   N   0.952590308267097   0.617725582681656   0.124075016334300   1.0000000
N2   N   0.952523958756273   0.760791074713389   0.124706217663827   1.0000000
N2   N   0.095134768607760   0.903786045788247   0.124286528675891   1.0000000
N2   N   0.095114965249903   0.046568540331190   0.122086594560924   1.0000000
N2   N   0.094629884344789   0.189013799266210   0.118318907924372   1.0000000
N2   N   0.094387506092111   0.331948027083829   0.113952188180888   1.0000000
N2   N   0.094521311452979   0.474852441796477   0.115703115706502   1.0000000
N2   N   0.094711893807220   0.617848847845302   0.121168565735271   1.0000000
N2   N   0.095030863651930   0.760877320888729   0.124264266748236   1.0000000
N2   N   0.237747394922269   0.903776167697006   0.122364469241922   1.0000000
N2   N   0.237917666276484   0.046568157457649   0.121189344614672   1.0000000
N2   N   0.237756727857967   0.189226014009701   0.115850877667623   1.0000000
N2   N   0.236011657774506   0.331020683767667   0.108858717008740   1.0000000
N2   N   0.236450624174177   0.474943420189358   0.101831434280491   1.0000000
N2   N   0.236472002221317   0.617951805241296   0.110605824439119   1.0000000
N2   N   0.237385788649184   0.760930290616818   0.118989624700525   1.0000000
N2   N   0.380361631351555   0.903738912367279   0.117916130544785   1.0000000
N2   N   0.380653204232895   0.046393090234707   0.119229744090475   1.0000000
N2   N   0.380787231663684   0.189073931169139   0.113690909533088   1.0000000
N2   N   0.380344819490381   0.332036287582292   0.100948809401580   1.0000000
N2   N   0.372607418298762   0.470217645772290   0.074328958518113   1.0000000
N2   N   0.376746672893662   0.618426455710472   0.083529437664200   1.0000000
N2   N   0.379600152310235   0.761088911340482   0.107581476157485   1.0000000
N2   N   0.523146404605169   0.904023200590853   0.112470097557368   1.0000000
N2   N   0.523501794401658   0.046223743027826   0.116895454064046   1.0000000
N2   N   0.523791351928242   0.188361572179773   0.114370878525416   1.0000000
N2   N   0.524715146792783   0.330379130794531   0.105107714301086   1.0000000
N2   N   0.522215624995502   0.762435997338581   0.094354617631066   1.0000000
N2   N   0.665922257650514   0.902953864143774   0.109956088041884   1.0000000
N2   N   0.666277538877215   0.045982517313695   0.114686590215248   1.0000000
N2   N   0.666564255459444   0.188704770438720   0.115654013029396   1.0000000
N2   N   0.667047250609736   0.331296608722578   0.112462180242468   1.0000000
N2   N   0.668043069402438   0.473522767931050   0.104738527337770   1.0000000
N2   N   0.669996794058201   0.618093590346095   0.097274278065351   1.0000000
N2   N   0.668062824980571   0.761692811847882   0.102046744489375   1.0000000
N2   N   0.809585473032623   0.903740368915653   0.116991879989459   1.0000000
N2   N   0.809051401680803   0.045981239554593   0.115972669835549   1.0000000
N2   N   0.809215903208406   0.188821793967569   0.116442421713789   1.0000000
N2   N   0.809521471335477   0.331638901084394   0.117338916907031   1.0000000
N2   N   0.810098800485914   0.474426123764470   0.118936181389420   1.0000000
N2   N   0.810422340357821   0.617432600059023   0.120365103523298   1.0000000
N2   N   0.810032968210639   0.760868980166972   0.118510642810704   1.0000000


