data_1
_audit_creation_method   'vasp2cif'
_cell_length_a    17.52789999999977
_cell_length_b    17.52789999999977
_cell_length_c    15.0
_cell_angle_alpha    90.0
_cell_angle_beta    90.0
_cell_angle_gamma    119.99999999999916

_symmetry_space_group_name_H-M    'P 1'
loop_
_atom_site_label
_atom_site_type_symbol
_atom_site_fract_x
_atom_site_fract_y
_atom_site_fract_z
_atom_site_occupancy
B2   B   0.904753667806187   0.952532368587385   0.125157948589552   1.0000000
B2   B   0.904647609254813   0.095352496684694   0.124884456074453   1.0000000
B2   B   0.904696813504270   0.238238886079944   0.120197655761063   1.0000000
B2   B   0.904814994745331   0.381082884574605   0.113920045714707   1.0000000
B2   B   0.904551322017313   0.523858672551904   0.110965429422792   1.0000000
B2   B   0.904090109508656   0.666465046738891   0.114028796979358   1.0000000
B2   B   0.904026999179436   0.809073615694356   0.120325051720775   1.0000000
B2   B   0.047510327855700   0.952479923340952   0.122370413750732   1.0000000
B2   B   0.047449463004360   0.095223593510184   0.124970428240081   1.0000000
B2   B   0.047439501229480   0.238252637414611   0.122568682239370   1.0000000
B2   B   0.047405524451515   0.381184065964593   0.116104691844850   1.0000000
B2   B   0.047451166532250   0.524005145124361   0.111662011522186   1.0000000
B2   B   0.047417041973737   0.666756716077396   0.112276955173639   1.0000000
B2   B   0.047310675669329   0.809538143498461   0.117079465308012   1.0000000
B2   B   0.190453533430776   0.952679548674899   0.117075069696115   1.0000000
B2   B   0.190912809137813   0.095961903228955   0.120226228966385   1.0000000
B2   B   0.189801878730275   0.237804162054029   0.120813237791102   1.0000000
B2   B   0.189786502364217   0.381064722222371   0.112757109152518   1.0000000
B2   B   0.190137809724422   0.523908431516234   0.107142925773731   1.0000000
B2   B   0.190559543437832   0.666770525792142   0.107948790236846   1.0000000
B2   B   0.190327841367763   0.809665229113031   0.112341984198843   1.0000000
B2   B   0.333234530361958   0.952578283348964   0.112441984098175   1.0000000
B2   B   0.333536598881953   0.095918303401973   0.114203469281410   1.0000000
B2   B   0.334445596421512   0.239874687670026   0.113204206345172   1.0000000
B2   B   0.329798854848527   0.379430029920332   0.099977375068539   1.0000000
B2   B   0.331703730392602   0.522439726918460   0.087785541900242   1.0000000
B2   B   0.333671809882344   0.666343803578836   0.098318797795337   1.0000000
B2   B   0.333227779532325   0.809442160045550   0.108087793063026   1.0000000
B2   B   0.475990376972809   0.952550860718274   0.112023332671824   1.0000000
B2   B   0.476140051832002   0.095457674370051   0.111294709665660   1.0000000
B2   B   0.476502545667925   0.238491989528148   0.108051480363767   1.0000000
B2   B   0.478767410004975   0.381950323732806   0.104154546314243   1.0000000
B2   B   0.477592504560509   0.668336282303159   0.087823665619605   1.0000000
B2   B   0.476089956765663   0.809861986599282   0.107481001618331   1.0000000
B2   B   0.618806780327184   0.952595229307636   0.116595901823696   1.0000000
B2   B   0.618917322235345   0.095190098585865   0.114235322165803   1.0000000
B2   B   0.619262939450816   0.237743992191231   0.109074005159786   1.0000000
B2   B   0.620029649873191   0.379976541511702   0.104121910453450   1.0000000
B2   B   0.618101236630001   0.521238859320191   0.104184822269226   1.0000000
B2   B   0.620580375830312   0.670222795755726   0.099902177879668   1.0000000
B2   B   0.618923104525732   0.810205308414749   0.113141468748395   1.0000000
B2   B   0.761733675650898   0.952557329598590   0.122983062388019   1.0000000
B2   B   0.761766203367875   0.095310992259320   0.120422543447386   1.0000000
B2   B   0.761960678096449   0.238041152326767   0.114522289466754   1.0000000
B2   B   0.762263313656815   0.380738339386185   0.108898677575454   1.0000000
B2   B   0.761547829366994   0.523518815199690   0.107737335212643   1.0000000
B2   B   0.760139862475071   0.665564947148048   0.113019650588997   1.0000000
B2   B   0.762167985374362   0.810171236707868   0.121074557009476   1.0000000
N2   N   0.952067326209492   0.904537631900797   0.123565076071727   1.0000000
N2   N   0.952293567171439   0.047690213461612   0.125952909584983   1.0000000
N2   N   0.952208657207854   0.190596315226934   0.123549330608030   1.0000000
N2   N   0.952198733127837   0.333458422232288   0.117338891965120   1.0000000
N2   N   0.952123406375085   0.476306923392663   0.112122106814157   1.0000000
N2   N   0.951932469636434   0.619047286522759   0.112269082240788   1.0000000
N2   N   0.951850579817883   0.761664196762537   0.117545946094320   1.0000000
N2   N   0.095118742406464   0.904868826076033   0.119331213290445   1.0000000
N2   N   0.095451763385149   0.047921726482718   0.123418581423066   1.0000000
N2   N   0.094804809544586   0.190294624065610   0.124335112727155   1.0000000
N2   N   0.094736874002232   0.333419151560569   0.118389016350673   1.0000000
N2   N   0.094891065342472   0.476361652090921   0.112225790077241   1.0000000
N2   N   0.095115621076246   0.619237203966592   0.110509802635585   1.0000000
N2   N   0.094982097005446   0.762017164027321   0.113838956494974   1.0000000
N2   N   0.237973773735359   0.905007107320544   0.113878951847494   1.0000000
N2   N   0.238332237349869   0.048147304967082   0.117535623509193   1.0000000
N2   N   0.238891233286762   0.191504226685047   0.118827297723925   1.0000000
N2   N   0.236313946094862   0.332258220190816   0.115622837898295   1.0000000
N2   N   0.237184133725412   0.476104686702022   0.104595031520935   1.0000000
N2   N   0.238173153889157   0.619180223419288   0.103886615340245   1.0000000
N2   N   0.237932731789532   0.762065139605227   0.108953268737767   1.0000000
N2   N   0.380758819152129   0.904881590461590   0.110742073453518   1.0000000
N2   N   0.380949247588632   0.048069921034892   0.112506227072686   1.0000000
N2   N   0.381526832452698   0.191555668718498   0.112090193326119   1.0000000
N2   N   0.382661759476239   0.336115158236740   0.107250876185312   1.0000000
N2   N   0.371579171213556   0.469203744375623   0.074927088931854   1.0000000
N2   N   0.381200794896878   0.618830603867436   0.086825543633529   1.0000000
N2   N   0.380823764867075   0.761833577868065   0.104055612286839   1.0000000
N2   N   0.523631116265235   0.905106637969729   0.112687559212463   1.0000000
N2   N   0.523690497234099   0.047882290365362   0.112478093322796   1.0000000
N2   N   0.524011618162729   0.190896701936159   0.109049739533805   1.0000000
N2   N   0.525357387067786   0.334439151408561   0.103838038079393   1.0000000
N2   N   0.530846440795118   0.628506941768559   0.074740428397890   1.0000000
N2   N   0.523892455290198   0.762817675411906   0.104883295547729   1.0000000
N2   N   0.666564808753933   0.905256649397030   0.118923363349103   1.0000000
N2   N   0.666540850546077   0.047806275859190   0.117739143831444   1.0000000
N2   N   0.666723802372317   0.190364851204165   0.112468014509843   1.0000000
N2   N   0.667210232989206   0.332792188291208   0.106608652129113   1.0000000
N2   N   0.665592734252627   0.474657439021883   0.103671086496375   1.0000000
N2   N   0.663898680848971   0.617344735996819   0.107018239689835   1.0000000
N2   N   0.667717757104975   0.763661760688001   0.115861789864726   1.0000000
N2   N   0.809685381617936   0.905180956961096   0.124702388063349   1.0000000
N2   N   0.809402521236427   0.047792810841763   0.123799290203048   1.0000000
N2   N   0.809455937840855   0.190551174362560   0.118975536899941   1.0000000
N2   N   0.809641170890554   0.333277233614095   0.112301712107272   1.0000000
N2   N   0.809122291064790   0.475990892884538   0.108712013107899   1.0000000
N2   N   0.808460732394111   0.618485163707666   0.111783595646879   1.0000000
N2   N   0.808492003401701   0.761104898504609   0.118908591088899   1.0000000
Sn2   Sn   0.489809797250944   0.510147553844591   0.014125518601407   1.0000000


