data_1
_audit_creation_method   'vasp2cif'
_cell_length_a    17.52789999999977
_cell_length_b    17.52789999999977
_cell_length_c    15.0
_cell_angle_alpha    90.0
_cell_angle_beta    90.0
_cell_angle_gamma    119.99999999999916

_symmetry_space_group_name_H-M    'P 1'
loop_
_atom_site_label
_atom_site_type_symbol
_atom_site_fract_x
_atom_site_fract_y
_atom_site_fract_z
_atom_site_occupancy
B2   B   0.905590226397410   0.953850005437484   0.126615547969807   1.0000000
B2   B   0.905425513090881   0.096562923946754   0.124318335909649   1.0000000
B2   B   0.904966156077126   0.239054490846801   0.120734220413172   1.0000000
B2   B   0.903926058744900   0.381377966720088   0.114790913293550   1.0000000
B2   B   0.903440952360459   0.523870316123239   0.106983860107895   1.0000000
B2   B   0.905491559098791   0.667988435944279   0.111867759345487   1.0000000
B2   B   0.905894513974365   0.811138761440248   0.122837125812312   1.0000000
B2   B   0.047999092845033   0.952951630080563   0.128618041611921   1.0000000
B2   B   0.048389738065326   0.096300119883084   0.124588740301117   1.0000000
B2   B   0.048374725448666   0.239054490846801   0.120734220413172   1.0000000
B2   B   0.047837777080586   0.381390875038165   0.120966999405189   1.0000000
B2   B   0.046883777078214   0.523579927281314   0.122087913608930   1.0000000
B2   B   0.046834725078642   0.666119049279922   0.123535142789465   1.0000000
B2   B   0.047499810795746   0.809476075610189   0.127890564125454   1.0000000
B2   B   0.189963365565963   0.951534072593307   0.129274387167845   1.0000000
B2   B   0.190345940108098   0.094866349461018   0.124252165969822   1.0000000
B2   B   0.191439906797599   0.238708983406123   0.115548622370435   1.0000000
B2   B   0.191738298654196   0.381377966720088   0.114790913293550   1.0000000
B2   B   0.190980829325100   0.523579927281314   0.122087913608930   1.0000000
B2   B   0.190096764832755   0.665908850543509   0.127235212172458   1.0000000
B2   B   0.189865965359410   0.808560582992117   0.129418813842618   1.0000000
B2   B   0.332649004536814   0.951013329949630   0.129044893755313   1.0000000
B2   B   0.332123898216615   0.093188756226966   0.122784590506424   1.0000000
B2   B   0.332044593065167   0.235674235275607   0.106678448649298   1.0000000
B2   B   0.334609829690475   0.380762804314888   0.092581576260208   1.0000000
B2   B   0.334715754441762   0.523870316123239   0.106983860107895   1.0000000
B2   B   0.333569003324288   0.666119049279922   0.123535142789465   1.0000000
B2   B   0.332979296755703   0.808560582992117   0.129418813842618   1.0000000
B2   B   0.475855386150343   0.951534072593307   0.129274387167845   1.0000000
B2   B   0.475351248690354   0.093188756226966   0.122784590506424   1.0000000
B2   B   0.473247979387859   0.232209568095718   0.102389408768530   1.0000000
B2   B   0.466837792306244   0.363199586421103   0.051626560280501   1.0000000
B2   B   0.476598116730927   0.531210205977715   0.065102795854606   1.0000000
B2   B   0.476783267524490   0.667988435944279   0.111867759345487   1.0000000
B2   B   0.476260943937449   0.809476075610189   0.127890564125454   1.0000000
B2   B   0.619237216358525   0.952951630080563   0.128618041611921   1.0000000
B2   B   0.618806800031934   0.094866349461019   0.124252165969822   1.0000000
B2   B   0.617916032890440   0.235674235275607   0.106678448649298   1.0000000
B2   B   0.610648184794862   0.363199586421103   0.051626560280501   1.0000000
B2   B   0.629934823899870   0.545583257120734   0.045114076331528   1.0000000
B2   B   0.620095106033891   0.671454355885729   0.098835359224467   1.0000000
B2   B   0.619530638144881   0.811138761440248   0.122837125812312   1.0000000
B2   B   0.762546169719068   0.953850005437484   0.126615547969807   1.0000000
B2   B   0.762196772496767   0.096300119883084   0.124588740301117   1.0000000
B2   B   0.761555467287525   0.238708983406123   0.115548622370435   1.0000000
B2   B   0.760439365304415   0.380762804314889   0.092581576260208   1.0000000
B2   B   0.768898479925789   0.531210205977716   0.065102795854606   1.0000000
B2   B   0.765645640530830   0.671454355885729   0.098835359224467   1.0000000
B2   B   0.762946769954793   0.811607149230584   0.119523019971210   1.0000000
N2   N   0.952975267877258   0.905953942861396   0.127625723756010   1.0000000
N2   N   0.953118099677678   0.048964984708365   0.125666654920039   1.0000000
N2   N   0.952990358132433   0.191691521734874   0.122094408829759   1.0000000
N2   N   0.952259578778762   0.334180331235513   0.119705606827654   1.0000000
N2   N   0.951324633295325   0.476482018418939   0.115936622776934   1.0000000
N2   N   0.951737138867470   0.619081096367860   0.114637599991729   1.0000000
N2   N   0.952503938169839   0.762544663230649   0.123429909629792   1.0000000
N2   N   0.094932055539836   0.904575684259312   0.129858477357107   1.0000000
N2   N   0.095390982629845   0.048028699903419   0.126859239779111   1.0000000
N2   N   0.096178146496498   0.191532690387420   0.120953198243377   1.0000000
N2   N   0.096208235430755   0.334180331235513   0.119705606827654   1.0000000
N2   N   0.095346331791224   0.476406892164457   0.122910103184676   1.0000000
N2   N   0.094675964639792   0.618636968276743   0.125372012855816   1.0000000
N2   N   0.094592579069322   0.761289069624475   0.128046113937472   1.0000000
N2   N   0.237426914081546   0.903690739498029   0.129824628003780   1.0000000
N2   N   0.237270393657618   0.046507377166164   0.126652864917531   1.0000000
N2   N   0.237779705712231   0.189824400286514   0.117399734905322   1.0000000
N2   N   0.239972258542192   0.334136100176839   0.108616692347413   1.0000000
N2   N   0.239444868097622   0.476482018418939   0.115936622776934   1.0000000
N2   N   0.238246775053951   0.618636968276743   0.125372012855816   1.0000000
N2   N   0.237665222409790   0.761044673402582   0.129031268917315   1.0000000
N2   N   0.380549596833489   0.903690739498029   0.129824628003780   1.0000000
N2   N   0.380129071794826   0.045970660616654   0.126147007433313   1.0000000
N2   N   0.379012578435277   0.187436265862383   0.112724337401128   1.0000000
N2   N   0.378892428443081   0.329147017102469   0.086185020107474   1.0000000
N2   N   0.382829937722123   0.477272179230529   0.087846658893837   1.0000000
N2   N   0.381631440473401   0.619081096367860   0.114637599991730   1.0000000
N2   N   0.380982261972150   0.761289069624475   0.128046113937472   1.0000000
N2   N   0.523929400136464   0.904575684259312   0.129858477357107   1.0000000
N2   N   0.523524466481552   0.046507377166164   0.126652864917531   1.0000000
N2   N   0.522711170400112   0.187436265862383   0.112724337401128   1.0000000
N2   N   0.518114386013712   0.321941289054425   0.072601443881934   1.0000000
N2   N   0.524998478919081   0.622606268386689   0.093336243620640   1.0000000
N2   N   0.524328208033818   0.762544663230649   0.123429909629792   1.0000000
N2   N   0.667266157957123   0.905953942861396   0.127625723756010   1.0000000
N2   N   0.666925200246566   0.048028699903419   0.126859239779111   1.0000000
N2   N   0.666332177547281   0.189824400286514   0.117399734905322   1.0000000
N2   N   0.664542071632387   0.329147017102470   0.086185020107474   1.0000000
N2   N   0.670534605402836   0.626781727833682   0.087203949399358   1.0000000
N2   N   0.667619702474602   0.764377114694879   0.115786613211016   1.0000000
N2   N   0.810319319003593   0.906351155033191   0.125812610557892   1.0000000
N2   N   0.810136079560690   0.048964984708365   0.125666654920039   1.0000000
N2   N   0.809642026864912   0.191532690387420   0.120953198243377   1.0000000
N2   N   0.808451324608654   0.334136100176839   0.108616692347413   1.0000000
N2   N   0.808729724482412   0.477272179230529   0.087846658893837   1.0000000
N2   N   0.811895272440615   0.622606268386689   0.093336243620640   1.0000000
N2   N   0.811044895193279   0.764377114694879   0.115786613211016   1.0000000
Al2   Al   0.519486794973298   0.471675673383670   0.959666527752427   1.0000000
Al2   Al   0.666476361383367   0.471675673383670   0.959666527752425   1.0000000


