data_1
_audit_creation_method   'vasp2cif'
_cell_length_a    14.93631414619966
_cell_length_b    14.936314146199727
_cell_length_c    13.341276283792837
_cell_angle_alpha    90.0
_cell_angle_beta    90.0
_cell_angle_gamma    119.99999999999984

_symmetry_space_group_name_H-M    'P 1'
loop_
_atom_site_label
_atom_site_type_symbol
_atom_site_fract_x
_atom_site_fract_y
_atom_site_fract_z
_atom_site_occupancy
N2   N   0.111118362557749   0.055547148931820   0.124131352602215   1.0000000
N2   N   0.611109030122217   0.555551393577695   0.122047535311731   1.0000000
N2   N   0.444433858076869   0.055549842333289   0.124623042605687   1.0000000
N2   N   0.944450157666690   0.555566141923128   0.124623042605687   1.0000000
N2   N   0.777768072182127   0.055550702757700   0.123721024240371   1.0000000
N2   N   0.111112614626053   0.722222973979827   0.623395127271537   1.0000000
N2   N   0.444433858076869   0.722217349076810   0.625376957394271   1.0000000
N2   N   0.277782968301196   0.222214173858206   0.627304881197503   1.0000000
N2   N   0.777785826141761   0.722217031698936   0.627304881197503   1.0000000
N2   N   0.611097872223724   0.222214173858206   0.627304881197503   1.0000000
N2   N   0.944449297242345   0.222231927817890   0.626278975759518   1.0000000
N2   N   0.277777026020386   0.722222973979827   0.126604872728570   1.0000000
N2   N   0.111128383835874   0.222230858584583   0.123326250972259   1.0000000
N2   N   0.444446385787112   0.222226104907643   0.122588567584080   1.0000000
N2   N   0.611097872223724   0.722217031698936   0.122695118802426   1.0000000
N2   N   0.944450157666690   0.722217349076810   0.124623042605687   1.0000000
N2   N   0.777769141415444   0.222230858584583   0.123326250972259   1.0000000
N2   N   0.111118036640455   0.888881963359426   0.624209815217891   1.0000000
N2   N   0.444430593385777   0.888881963359426   0.624209815217891   1.0000000
N2   N   0.277782968301182   0.388902127776320   0.627304881197503   1.0000000
N2   N   0.611109030122217   0.388890969877817   0.627952464688243   1.0000000
N2   N   0.777769141415444   0.888871616164195   0.626673749027588   1.0000000
N2   N   0.944452851068228   0.388904546959196   0.625868647397806   1.0000000
N2   N   0.111118362557749   0.388904546959196   0.124131352602215   1.0000000
N2   N   0.277777026020386   0.888887385374100   0.126604872728570   1.0000000
N2   N   0.611095453040698   0.888881637442272   0.124131352602215   1.0000000
N2   N   0.444448606422337   0.388890969877817   0.122047535311717   1.0000000
N2   N   0.944452851068228   0.888881637442272   0.124131352602215   1.0000000
N2   N   0.777785826141761   0.388902127776320   0.122695118802426   1.0000000
N2   N   0.277782650923114   0.555566141923128   0.625376957394271   1.0000000
N2   N   0.111118362557759   0.055547148931819   0.625868647397806   1.0000000
N2   N   0.611109030122217   0.555551393577695   0.627952464688252   1.0000000
N2   N   0.444433858076869   0.055549842333289   0.625376957394271   1.0000000
N2   N   0.944450157666690   0.555566141923128   0.625376957394271   1.0000000
N2   N   0.111118036640455   0.555569406614332   0.125790184782140   1.0000000
N2   N   0.777768072182127   0.055550702757700   0.626278975759518   1.0000000
N2   N   0.277782650923114   0.055549842333289   0.124623042605687   1.0000000
N2   N   0.444446385787112   0.555553614212654   0.122588567584085   1.0000000
N2   N   0.777773895092439   0.555553614212654   0.122588567584080   1.0000000
N2   N   0.611095453040698   0.055547148931820   0.124131352602215   1.0000000
N2   N   0.444446385787112   0.555553614212652   0.627411432415816   1.0000000
N2   N   0.944449297242345   0.055550702757700   0.123721024240373   1.0000000
N2   N   0.277777026020386   0.722222973979827   0.623395127271550   1.0000000
N2   N   0.111128383835874   0.222230858584583   0.626673749027588   1.0000000
N2   N   0.444446385787112   0.222226104907643   0.627411432415816   1.0000000
N2   N   0.611097872223724   0.722217031698936   0.627304881197503   1.0000000
N2   N   0.944450157666690   0.722217349076810   0.625376957394271   1.0000000
N2   N   0.777769141415444   0.222230858584583   0.626673749027590   1.0000000
N2   N   0.111112614626053   0.722222973979827   0.126604872728570   1.0000000
N2   N   0.444433858076869   0.722217349076810   0.124623042605687   1.0000000
N2   N   0.277782968301182   0.222214173858206   0.122695118802426   1.0000000
N2   N   0.777785826141761   0.722217031698936   0.122695118802426   1.0000000
N2   N   0.611097872223724   0.222214173858206   0.122695118802426   1.0000000
N2   N   0.944449297242345   0.222231927817890   0.123721024240373   1.0000000
N2   N   0.111118362557749   0.388904546959196   0.625868647397806   1.0000000
N2   N   0.277777026020386   0.888887385374100   0.623395127271537   1.0000000
N2   N   0.611095453040698   0.888881637442272   0.625868647397806   1.0000000
N2   N   0.444448606422341   0.388890969877817   0.627952464688252   1.0000000
N2   N   0.944452851068228   0.888881637442272   0.625868647397806   1.0000000
N2   N   0.111118036640455   0.888881963359426   0.125790184782131   1.0000000
N2   N   0.777785826141761   0.388902127776320   0.627304881197503   1.0000000
N2   N   0.444430593385777   0.888881963359426   0.125790184782130   1.0000000
N2   N   0.277782968301182   0.388902127776320   0.122695118802426   1.0000000
N2   N   0.277782650923114   0.555566141923128   0.124623042605687   1.0000000
N2   N   0.611109030122217   0.388890969877817   0.122047535311718   1.0000000
N2   N   0.777769141415444   0.888871616164195   0.123326250972259   1.0000000
N2   N   0.944452851068228   0.388904546959196   0.124131352602215   1.0000000
N2   N   0.111118036640455   0.555569406614332   0.624209815217891   1.0000000
N2   N   0.277782650923114   0.055549842333289   0.625376957394271   1.0000000
N2   N   0.777773895092439   0.555553614212652   0.627411432415816   1.0000000
N2   N   0.611095453040698   0.055547148931819   0.625868647397806   1.0000000
N2   N   0.944449297242345   0.055550702757700   0.626278975759518   1.0000000
N2   N   0.054999430909675   0.110765764027075   0.375000000000000   1.0000000
N2   N   0.555871680314920   0.615407555141645   0.375000000000000   1.0000000
N2   N   0.388548020258034   0.110429373849434   0.375000000000000   1.0000000
N2   N   0.889570626150596   0.611451979741991   0.375000000000000   1.0000000
N2   N   0.722432999783921   0.110765764027075   0.375000000000000   1.0000000
N2   N   0.055558206855593   0.777775821036369   0.875000000000000   1.0000000
N2   N   0.388884280847632   0.777775821036369   0.875000000000000   1.0000000
N2   N   0.222219796233357   0.277776564783367   0.875000000000000   1.0000000
N2   N   0.722223435216701   0.777780203766601   0.875000000000000   1.0000000
N2   N   0.555554419066946   0.277776347194841   0.875000000000000   1.0000000
N2   N   0.888891884230743   0.277781305837773   0.875000000000000   1.0000000
N2   N   0.222222222222221   0.777777777777779   0.375000000000000   1.0000000
N2   N   0.054999430909672   0.277567000215988   0.375000000000000   1.0000000
N2   N   0.384592444858336   0.273797458506539   0.375000000000000   1.0000000
N2   N   0.555474710062496   0.779524033242431   0.375000000000000   1.0000000
N2   N   0.890715989846626   0.779524033242431   0.375000000000000   1.0000000
N2   N   0.723093530611382   0.276906469388452   0.375000000000000   1.0000000
N2   N   0.055559902339103   0.944440097660979   0.875000000000000   1.0000000
N2   N   0.388884280847632   0.944441793144433   0.875000000000000   1.0000000
N2   N   0.222221790001306   0.444450108941898   0.875000000000000   1.0000000
N2   N   0.555555555555557   0.444444444444443   0.875000000000000   1.0000000
N2   N   0.722218694162277   0.944443911726163   0.875000000000000   1.0000000
N2   N   0.888894985607190   0.444450108941898   0.875000000000000   1.0000000
N2   N   0.055622409079301   0.444578151491976   0.375000000000000   1.0000000
N2   N   0.222105982610963   0.944122826931916   0.375000000000000   1.0000000
N2   N   0.555421848507972   0.944377590920683   0.375000000000000   1.0000000
N2   N   0.384592444858322   0.444128319685124   0.375000000000000   1.0000000
N2   N   0.889234235972750   0.945000569090276   0.375000000000000   1.0000000
N2   N   0.726202541493386   0.444128319685085   0.375000000000000   1.0000000
N2   N   0.222224178963477   0.611115719152413   0.875000000000000   1.0000000
N2   N   0.055556088273643   0.111108115769245   0.875000000000000   1.0000000
N2   N   0.555554419066946   0.611111405205654   0.875000000000000   1.0000000
N2   N   0.388886927752227   0.111107188837839   0.875000000000000   1.0000000
N2   N   0.888892811162204   0.611113072247785   0.875000000000000   1.0000000
N2   N   0.055877173068112   0.611316489012491   0.375000000000000   1.0000000
N2   N   0.722218694162277   0.111108115769245   0.875000000000000   1.0000000
N2   N   0.220475966757524   0.109284010153359   0.375000000000000   1.0000000
N2   N   0.388548020258029   0.611451979741992   0.375000000000000   1.0000000
N2   N   0.726202541493374   0.615407555141645   0.375000000000000   1.0000000
N2   N   0.555474710062496   0.109284010153346   0.375000000000000   1.0000000
N2   N   0.388886927752227   0.611113072247785   0.875000000000000   1.0000000
N2   N   0.888888888888886   0.111111111111114   0.375000000000000   1.0000000
N2   N   0.222222222222221   0.777777777777779   0.875000000000000   1.0000000
N2   N   0.055556088273643   0.277781305837773   0.875000000000000   1.0000000
N2   N   0.388888594794537   0.277776347194841   0.875000000000000   1.0000000
N2   N   0.555549891058047   0.777778209998798   0.875000000000000   1.0000000
N2   N   0.888894985607190   0.777778209998798   0.875000000000000   1.0000000
N2   N   0.722223435216701   0.277776564783367   0.875000000000000   1.0000000
N2   N   0.055877173068111   0.777894017389000   0.375000000000000   1.0000000
N2   N   0.388683510987577   0.777894017389000   0.375000000000000   1.0000000
N2   N   0.220479605443558   0.276906469388452   0.375000000000000   1.0000000
N2   N   0.723093530611382   0.779520394556432   0.375000000000000   1.0000000
N2   N   0.555871680314922   0.273797458506545   0.375000000000000   1.0000000
N2   N   0.889234235972750   0.277567000215994   0.375000000000000   1.0000000
N2   N   0.055559902339103   0.444453138011539   0.875000000000000   1.0000000
N2   N   0.222224178963477   0.944441793144433   0.875000000000000   1.0000000
N2   N   0.555546861988619   0.944440097660979   0.875000000000000   1.0000000
N2   N   0.388888594794537   0.444445580932908   0.875000000000000   1.0000000
N2   N   0.888891884230743   0.944443911726196   0.875000000000000   1.0000000
N2   N   0.055622409079302   0.944377590920683   0.375000000000000   1.0000000
N2   N   0.722223652805220   0.444445580932908   0.875000000000000   1.0000000
N2   N   0.388683510987577   0.944122826931916   0.375000000000000   1.0000000
N2   N   0.220475966757524   0.444525289937481   0.375000000000000   1.0000000
N2   N   0.222105982610963   0.611316489012491   0.375000000000000   1.0000000
N2   N   0.722432999783921   0.945000569090276   0.375000000000000   1.0000000
N2   N   0.890715989846626   0.444525289937481   0.375000000000000   1.0000000
N2   N   0.055558206855593   0.611115719152412   0.875000000000000   1.0000000
N2   N   0.222221790001306   0.111105014392680   0.875000000000000   1.0000000
N2   N   0.722223652805220   0.611111405205654   0.875000000000000   1.0000000
N2   N   0.555549891058047   0.111105014392680   0.875000000000000   1.0000000
N2   N   0.888888888888886   0.111111111111114   0.875000000000000   1.0000000
B2   B   0.109843147168299   0.054699709344213   0.375000000000000   1.0000000
B2   B   0.618604018977455   0.570541371288278   0.375000000000000   1.0000000
B2   B   0.444335936177263   0.054597555567330   0.375000000000000   1.0000000
B2   B   0.945402444432716   0.555664063822816   0.375000000000000   1.0000000
B2   B   0.778132195294525   0.055732764314044   0.375000000000000   1.0000000
B2   B   0.111124193793341   0.722228763563423   0.875000000000000   1.0000000
B2   B   0.444438113558407   0.722249409235014   0.875000000000000   1.0000000
B2   B   0.277726875859233   0.222184953895203   0.875000000000000   1.0000000
B2   B   0.777815046104758   0.722273124140837   0.875000000000000   1.0000000
B2   B   0.611124744702649   0.222184953895203   0.875000000000000   1.0000000
B2   B   0.944438589015201   0.222210511363824   0.875000000000000   1.0000000
B2   B   0.277643557263938   0.722356442736132   0.375000000000000   1.0000000
B2   B   0.109473372753004   0.221403353043175   0.375000000000000   1.0000000
B2   B   0.443441263844937   0.220215861023271   0.375000000000000   1.0000000
B2   B   0.612253047693768   0.726716057037564   0.375000000000000   1.0000000
B2   B   0.945402444432730   0.723071713943180   0.375000000000000   1.0000000
B2   B   0.778596646956749   0.221403353043175   0.375000000000000   1.0000000
B2   B   0.111113021046966   0.888886978953142   0.875000000000000   1.0000000
B2   B   0.444440624572784   0.888886978953142   0.875000000000000   1.0000000
B2   B   0.277726875859233   0.388875255297456   0.875000000000000   1.0000000
B2   B   0.611134925196116   0.388865074803781   0.875000000000000   1.0000000
B2   B   0.777794930401066   0.888923194135579   0.875000000000000   1.0000000
B2   B   0.944461649309366   0.388881331321038   0.875000000000000   1.0000000
B2   B   0.109843147168310   0.388476771157330   0.375000000000000   1.0000000
B2   B   0.277643557263949   0.888620447861205   0.375000000000000   1.0000000
B2   B   0.611523228842669   0.890156852831986   0.375000000000000   1.0000000
B2   B   0.429458628711784   0.381395981022570   0.375000000000000   1.0000000
B2   B   0.945300290655900   0.890156852831986   0.375000000000000   1.0000000
B2   B   0.781129676010573   0.387746952306224   0.375000000000000   1.0000000
B2   B   0.277750590764940   0.555561886441600   0.875000000000000   1.0000000
B2   B   0.111086348678266   0.055538350690562   0.875000000000000   1.0000000
B2   B   0.611134925196116   0.555603183725766   0.875000000000000   1.0000000
B2   B   0.444438113558407   0.055522037656684   0.875000000000000   1.0000000
B2   B   0.944477962343301   0.555561886441600   0.875000000000000   1.0000000
B2   B   0.111133165224692   0.555599663782558   0.375000000000000   1.0000000
B2   B   0.777789488636181   0.055561410984750   0.875000000000000   1.0000000
B2   B   0.276928286056761   0.054597555567329   0.375000000000000   1.0000000
B2   B   0.443441263844927   0.556558736154999   0.375000000000000   1.0000000
B2   B   0.779784138976837   0.556558736155076   0.375000000000000   1.0000000
B2   B   0.611523228842669   0.054699709344213   0.375000000000000   1.0000000
B2   B   0.444424668586616   0.555575331413252   0.875000000000000   1.0000000
B2   B   0.944267235685966   0.055732764314044   0.375000000000000   1.0000000
B2   B   0.277771236436696   0.722228763563423   0.875000000000000   1.0000000
B2   B   0.111076805864466   0.222205069598895   0.875000000000000   1.0000000
B2   B   0.444424668586626   0.222182670506631   0.875000000000000   1.0000000
B2   B   0.611124744702649   0.722273124140837   0.875000000000000   1.0000000
B2   B   0.944477962343301   0.722249409235014   0.875000000000000   1.0000000
B2   B   0.777794930401066   0.222205069598895   0.875000000000000   1.0000000
B2   B   0.111379552138774   0.722356442736132   0.375000000000000   1.0000000
B2   B   0.444335936177219   0.723071713943180   0.375000000000000   1.0000000
B2   B   0.273283942962381   0.218870323989459   0.375000000000000   1.0000000
B2   B   0.781129676010573   0.726716057037574   0.375000000000000   1.0000000
B2   B   0.612253047693721   0.218870323989455   0.375000000000000   1.0000000
B2   B   0.944267235685966   0.221867804705289   0.375000000000000   1.0000000
B2   B   0.111086348678266   0.388881331321038   0.875000000000000   1.0000000
B2   B   0.277771236436696   0.888875806206721   0.875000000000000   1.0000000
B2   B   0.611118668679018   0.888913651321697   0.875000000000000   1.0000000
B2   B   0.444396816274177   0.388865074803781   0.875000000000000   1.0000000
B2   B   0.944461649309366   0.888913651321697   0.875000000000000   1.0000000
B2   B   0.111133165224692   0.888866834775325   0.375000000000000   1.0000000
B2   B   0.777815046104758   0.388875255297456   0.875000000000000   1.0000000
B2   B   0.444400336217250   0.888866834775325   0.375000000000000   1.0000000
B2   B   0.273283942962383   0.387746952306232   0.375000000000000   1.0000000
B2   B   0.276928286056761   0.555664063822816   0.375000000000000   1.0000000
B2   B   0.618604018977485   0.381395981022553   0.375000000000000   1.0000000
B2   B   0.778596646956749   0.890526627247071   0.375000000000000   1.0000000
B2   B   0.945300290655900   0.388476771157330   0.375000000000000   1.0000000
B2   B   0.111113021046966   0.555559375427408   0.875000000000000   1.0000000
B2   B   0.277750590764944   0.055522037656684   0.875000000000000   1.0000000
B2   B   0.777817329493432   0.555575331413252   0.875000000000000   1.0000000
B2   B   0.611118668679018   0.055538350690562   0.875000000000000   1.0000000
B2   B   0.944438589015201   0.055561410984750   0.875000000000000   1.0000000
B2   B   0.055521707510388   0.111082003063447   0.123475435195403   1.0000000
B2   B   0.555515388578357   0.611256773912508   0.121806936650071   1.0000000
B2   B   0.388806943632636   0.110947220598558   0.123600745371859   1.0000000
B2   B   0.889052779401461   0.611193056367456   0.123600745371859   1.0000000
B2   B   0.722226962219615   0.111082003063451   0.123475435195403   1.0000000
B2   B   0.055619029607636   0.777803496366249   0.624410125096069   1.0000000
B2   B   0.388851133425183   0.777803496366249   0.624410125096069   1.0000000
B2   B   0.222125861236067   0.277729597284673   0.627504591125782   1.0000000
B2   B   0.722270402715003   0.777874138763899   0.627504591125782   1.0000000
B2   B   0.555515388578357   0.277591947999048   0.628193063349915   1.0000000
B2   B   0.888917996936592   0.277773037780221   0.626524564804573   1.0000000
B2   B   0.222222222222221   0.777777777777779   0.126639241365620   1.0000000
B2   B   0.055521707510388   0.277773037780221   0.123475435195403   1.0000000
B2   B   0.388743226087515   0.277591947999048   0.121806936650071   1.0000000
B2   B   0.555530825164550   0.777856914056091   0.123518918493986   1.0000000
B2   B   0.888992755557969   0.777856914056091   0.123518918494000   1.0000000
B2   B   0.722270402715003   0.277729597284673   0.122495408874079   1.0000000
B2   B   0.055566940787692   0.944433059212335   0.625474026977184   1.0000000
B2   B   0.388851133425183   0.944380970392331   0.624410125096069   1.0000000
B2   B   0.222143085943924   0.444469174835301   0.626481081505958   1.0000000
B2   B   0.555555555555557   0.444444444444443   0.629049401671839   1.0000000
B2   B   0.722226962219615   0.944478292489719   0.626524564804573   1.0000000
B2   B   0.888992755557969   0.444469174835301   0.626481081505958   1.0000000
B2   B   0.055566940787692   0.444467214908789   0.124525973022849   1.0000000
B2   B   0.222196503633833   0.944380970392331   0.125589874903899   1.0000000
B2   B   0.555532785091458   0.944433059212335   0.124525973022849   1.0000000
B2   B   0.388743226087515   0.444484611421687   0.121806936650087   1.0000000
B2   B   0.888917996936592   0.944478292489719   0.123475435195403   1.0000000
B2   B   0.722408052000927   0.444484611421687   0.121806936650089   1.0000000
B2   B   0.222196503633833   0.611148866574715   0.624410125096069   1.0000000
B2   B   0.055521707510388   0.111082003063447   0.626524564804573   1.0000000
B2   B   0.555515388578357   0.611256773912508   0.628193063349915   1.0000000
B2   B   0.388806943632636   0.110947220598558   0.626399254627945   1.0000000
B2   B   0.889052779401386   0.611193056367456   0.626399254627945   1.0000000
B2   B   0.055619029607636   0.611148866574715   0.125589874903899   1.0000000
B2   B   0.722226962219615   0.111082003063447   0.626524564804573   1.0000000
B2   B   0.222143085943924   0.111007244441869   0.123518918494000   1.0000000
B2   B   0.388806943632598   0.611193056367456   0.123600745371859   1.0000000
B2   B   0.722408052000927   0.611256773912508   0.121806936650071   1.0000000
B2   B   0.555530825164550   0.111007244441869   0.123518918494000   1.0000000
B2   B   0.388806943632598   0.611193056367456   0.626399254627945   1.0000000
B2   B   0.888888888888886   0.111111111111114   0.123477241401395   1.0000000
B2   B   0.222222222222221   0.777777777777779   0.623360758634431   1.0000000
B2   B   0.055521707510388   0.277773037780221   0.626524564804573   1.0000000
B2   B   0.388743226087515   0.277591947999048   0.628193063349898   1.0000000
B2   B   0.555530825164550   0.777856914056091   0.626481081505958   1.0000000
B2   B   0.888992755557969   0.777856914056091   0.626481081505958   1.0000000
B2   B   0.722270402715003   0.277729597284673   0.627504591125782   1.0000000
B2   B   0.055619029607636   0.777803496366249   0.125589874903899   1.0000000
B2   B   0.388851133425183   0.777803496366249   0.125589874903899   1.0000000
B2   B   0.222125861236067   0.277729597284673   0.122495408874079   1.0000000
B2   B   0.722270402715003   0.777874138763899   0.122495408874079   1.0000000
B2   B   0.555515388578357   0.277591947999048   0.121806936650071   1.0000000
B2   B   0.888917996936592   0.277773037780221   0.123475435195359   1.0000000
B2   B   0.055566940787692   0.444467214908789   0.625474026977184   1.0000000
B2   B   0.222196503633837   0.944380970392331   0.624410125096069   1.0000000
B2   B   0.555532785091458   0.944433059212335   0.625474026977184   1.0000000
B2   B   0.388743226087482   0.444484611421687   0.628193063349915   1.0000000
B2   B   0.888917996936592   0.944478292489719   0.626524564804573   1.0000000
B2   B   0.055566940787692   0.944433059212337   0.124525973022849   1.0000000
B2   B   0.722408052000927   0.444484611421687   0.628193063349915   1.0000000
B2   B   0.388851133425183   0.944380970392331   0.125589874903899   1.0000000
B2   B   0.222143085943924   0.444469174835301   0.123518918494000   1.0000000
B2   B   0.222196503633833   0.611148866574715   0.125589874903899   1.0000000
B2   B   0.555555555555557   0.444444444444443   0.120950598328181   1.0000000
B2   B   0.722226962219615   0.944478292489719   0.123475435195403   1.0000000
B2   B   0.888992755557969   0.444469174835301   0.123518918494000   1.0000000
B2   B   0.055619029607636   0.611148866574715   0.624410125096069   1.0000000
B2   B   0.222143085943924   0.111007244441869   0.626481081505958   1.0000000
B2   B   0.722408052000927   0.611256773912508   0.628193063349915   1.0000000
B2   B   0.555530825164550   0.111007244441869   0.626481081505958   1.0000000
B2   B   0.888888888888886   0.111111111111114   0.626522758598665   1.0000000
B2   B   0.555555555555557   0.444444444444443   0.375000000000000   1.0000000


