data_1
_audit_creation_method   'vasp2cif'
_cell_length_a    14.93631414619966
_cell_length_b    14.936314146199727
_cell_length_c    13.341276283792837
_cell_angle_alpha    90.0
_cell_angle_beta    90.0
_cell_angle_gamma    119.99999999999984

_symmetry_space_group_name_H-M    'P 1'
loop_
_atom_site_label
_atom_site_type_symbol
_atom_site_fract_x
_atom_site_fract_y
_atom_site_fract_z
_atom_site_occupancy
N2   N   0.111093592852672   0.055549557486295   0.125102869805555   1.0000000
N2   N   0.611110796259174   0.555543160900986   0.126557941531869   1.0000000
N2   N   0.444430367454025   0.055549404225431   0.125166851820524   1.0000000
N2   N   0.944466431281381   0.555566868376241   0.125178116284127   1.0000000
N2   N   0.777730783273229   0.055532058303282   0.125126500459599   1.0000000
N2   N   0.111127986790562   0.722230660061945   0.624868879164758   1.0000000
N2   N   0.444430367454025   0.722214296561930   0.624833148179476   1.0000000
N2   N   0.277749449927185   0.222214261815615   0.624804254300972   1.0000000
N2   N   0.777775994692951   0.722210131476236   0.624581434252590   1.0000000
N2   N   0.611085312905742   0.222217068011863   0.624562807370867   1.0000000
N2   N   0.944404608718428   0.222206325016131   0.624895172957713   1.0000000
N2   N   0.277778592980941   0.722220993732010   0.125127275912333   1.0000000
N2   N   0.111069387757336   0.222201360545332   0.125088026989439   1.0000000
N2   N   0.444454083368867   0.222226142822465   0.125500638526557   1.0000000
N2   N   0.611085312905742   0.722201578227209   0.125437192629133   1.0000000
N2   N   0.944466431281381   0.722232896238475   0.125178116284127   1.0000000
N2   N   0.777745008049055   0.222216063238505   0.125158320497473   1.0000000
N2   N   0.111120176099334   0.888896751394503   0.624875742410220   1.0000000
N2   N   0.444424499492434   0.888878916412882   0.624854417152511   1.0000000
N2   N   0.277749449927185   0.388868521444898   0.624804254300972   1.0000000
N2   N   0.611110796259174   0.388900968691517   0.623442058468130   1.0000000
N2   N   0.777745008049055   0.888862278143879   0.624841679502527   1.0000000
N2   N   0.944439680360247   0.388890429380687   0.624882585477041   1.0000000
N2   N   0.111093592852672   0.388877368699705   0.125102869805555   1.0000000
N2   N   0.277778592980941   0.888890932582260   0.125127275912333   1.0000000
N2   N   0.611073824307513   0.888870407320677   0.125137249404550   1.0000000
N2   N   0.444442285338653   0.388887809335991   0.125785099714512   1.0000000
N2   N   0.944439680360247   0.888882584312890   0.125117414522958   1.0000000
N2   N   0.777775994692951   0.388899196550044   0.125418565747410   1.0000000
N2   N   0.277775230750091   0.555549186924385   0.624874656213237   1.0000000
N2   N   0.111093592852672   0.055549557486295   0.624897130194445   1.0000000
N2   N   0.611110796259174   0.555543160900986   0.623442058468130   1.0000000
N2   N   0.444430367454025   0.055549404225431   0.624833148179476   1.0000000
N2   N   0.944466431281381   0.555566868376241   0.624821883715873   1.0000000
N2   N   0.111120176099334   0.555556758038159   0.125124257589780   1.0000000
N2   N   0.777730783273229   0.055532058303282   0.624873499540400   1.0000000
N2   N   0.277775230750091   0.055559377159041   0.125125343786763   1.0000000
N2   N   0.444454083368867   0.555561273879737   0.125500638526557   1.0000000
N2   N   0.777796227186810   0.555564780260073   0.125702621610850   1.0000000
N2   N   0.611073824307513   0.055536750320165   0.125137249404550   1.0000000
N2   N   0.444454083368867   0.555561273879737   0.624499361473444   1.0000000
N2   N   0.944404608718428   0.055531617035634   0.125104827042287   1.0000000
N2   N   0.277778592980941   0.722220993732010   0.624872724087666   1.0000000
N2   N   0.111069387757336   0.222201360545332   0.624911973010561   1.0000000
N2   N   0.444454083368867   0.222226142822465   0.624499361473444   1.0000000
N2   N   0.611085312905742   0.722201578227209   0.624562807370867   1.0000000
N2   N   0.944466431281381   0.722232896238475   0.624821883715873   1.0000000
N2   N   0.777745008049055   0.222216063238505   0.624841679502527   1.0000000
N2   N   0.111127986790562   0.722230660061945   0.125131120835241   1.0000000
N2   N   0.444430367454025   0.722214296561930   0.125166851820524   1.0000000
N2   N   0.277749449927185   0.222214261815615   0.125195745699028   1.0000000
N2   N   0.777775994692951   0.722210131476236   0.125418565747410   1.0000000
N2   N   0.611085312905742   0.222217068011863   0.125437192629133   1.0000000
N2   N   0.944404608718428   0.222206325016131   0.125104827042287   1.0000000
N2   N   0.111093592852672   0.388877368699705   0.624897130194445   1.0000000
N2   N   0.277778592980941   0.888890932582260   0.624872724087666   1.0000000
N2   N   0.611073824307513   0.888870407320677   0.624862750595450   1.0000000
N2   N   0.444442285338653   0.388887809335991   0.624214900285488   1.0000000
N2   N   0.944439680360247   0.888882584312890   0.624882585477041   1.0000000
N2   N   0.111120176099334   0.888896751394503   0.125124257589780   1.0000000
N2   N   0.777775994692951   0.388899196550044   0.624581434252590   1.0000000
N2   N   0.444424499492434   0.888878916412882   0.125145582847490   1.0000000
N2   N   0.277749449927185   0.388868521444898   0.125195745699028   1.0000000
N2   N   0.277775230750091   0.555549186924385   0.125125343786763   1.0000000
N2   N   0.611110796259174   0.388900968691517   0.126557941531869   1.0000000
N2   N   0.777745008049055   0.888862278143879   0.125158320497473   1.0000000
N2   N   0.944439680360247   0.388890429380687   0.125117414522958   1.0000000
N2   N   0.111120176099334   0.555556758038159   0.624875742410220   1.0000000
N2   N   0.277775230750091   0.055559377159041   0.624874656213237   1.0000000
N2   N   0.777796227186810   0.555564780260073   0.624297378389149   1.0000000
N2   N   0.611073824307513   0.055536750320165   0.624862750595450   1.0000000
N2   N   0.944404608718428   0.055531617035634   0.624895172957713   1.0000000
N2   N   0.053451192076929   0.109811827328356   0.375000000000000   1.0000000
N2   N   0.555986948603265   0.607084419772349   0.375000000000000   1.0000000
N2   N   0.389186637016681   0.112679852172352   0.375000000000000   1.0000000
N2   N   0.891472818838624   0.612403076085983   0.375000000000000   1.0000000
N2   N   0.721548308122809   0.111139271333850   0.375000000000000   1.0000000
N2   N   0.055548264440000   0.777776224184026   0.875000000000000   1.0000000
N2   N   0.388890496108821   0.777776407250731   0.875000000000000   1.0000000
N2   N   0.222218129923564   0.277775731628450   0.875000000000000   1.0000000
N2   N   0.722223627254843   0.777777757432227   0.875000000000000   1.0000000
N2   N   0.555559917718284   0.277785890708943   0.875000000000000   1.0000000
N2   N   0.888888608219069   0.277776720388480   0.875000000000000   1.0000000
N2   N   0.223321220904918   0.778327277119127   0.375000000000000   1.0000000
N2   N   0.053451192076929   0.276972698081909   0.375000000000000   1.0000000
N2   N   0.381361705826015   0.268951066949017   0.375000000000000   1.0000000
N2   N   0.555678835400609   0.776288675341835   0.375000000000000   1.0000000
N2   N   0.890002431735087   0.778199211398146   0.375000000000000   1.0000000
N2   N   0.722179769769372   0.278698936284635   0.375000000000000   1.0000000
N2   N   0.055549673688065   0.944443465015196   0.875000000000000   1.0000000
N2   N   0.388890496108821   0.944447422191425   0.875000000000000   1.0000000
N2   N   0.222216932526704   0.444440687285461   0.875000000000000   1.0000000
N2   N   0.555558953767213   0.444446143550271   0.875000000000000   1.0000000
N2   N   0.722221967533458   0.944444352261502   0.875000000000000   1.0000000
N2   N   0.888887147544382   0.444441339987648   0.875000000000000   1.0000000
N2   N   0.055395712846261   0.444441324166256   0.375000000000000   1.0000000
N2   N   0.222899302291260   0.945181583602979   0.375000000000000   1.0000000
N2   N   0.555574375239258   0.944453854286293   0.375000000000000   1.0000000
N2   N   0.381361705826015   0.445743972210332   0.375000000000000   1.0000000
N2   N   0.888003427280376   0.943645900152686   0.375000000000000   1.0000000
N2   N   0.725187972118405   0.447050354173560   0.375000000000000   1.0000000
N2   N   0.222216866715926   0.611106268644418   0.875000000000000   1.0000000
N2   N   0.055550839172665   0.111108718053984   0.875000000000000   1.0000000
N2   N   0.555559917718284   0.611107360342676   0.875000000000000   1.0000000
N2   N   0.388890258268369   0.111117227271996   0.875000000000000   1.0000000
N2   N   0.888884499801132   0.611108916567238   0.875000000000000   1.0000000
N2   N   0.056960151000815   0.611698529884042   0.375000000000000   1.0000000
N2   N   0.722221967533458   0.111110948605292   0.875000000000000   1.0000000
N2   N   0.220655286196697   0.110235528555957   0.375000000000000   1.0000000
N2   N   0.389186637016681   0.609840118177672   0.375000000000000   1.0000000
N2   N   0.725187972118405   0.611470951278181   0.375000000000000   1.0000000
N2   N   0.555678835400609   0.112723493392109   0.375000000000000   1.0000000
N2   N   0.388890258268369   0.611106364329717   0.875000000000000   1.0000000
N2   N   0.887473677089162   0.110403505211253   0.375000000000000   1.0000000
N2   N   0.222217184300671   0.777775258817005   0.875000000000000   1.0000000
N2   N   0.055550839172665   0.277775454452016   0.875000000000000   1.0000000
N2   N   0.388890017182612   0.277780756926439   0.875000000000000   1.0000000
N2   N   0.555558119452141   0.777776324759086   0.875000000000000   1.0000000
N2   N   0.888887147544382   0.777779140890070   0.875000000000000   1.0000000
N2   N   0.722223627254843   0.277779203155951   0.875000000000000   1.0000000
N2   N   0.056960151000815   0.778594954450109   0.375000000000000   1.0000000
N2   N   0.389516399162516   0.777514278990735   0.375000000000000   1.0000000
N2   N   0.217805003676715   0.275569168505026   0.375000000000000   1.0000000
N2   N   0.722179769769372   0.776814166818073   0.375000000000000   1.0000000
N2   N   0.555986948603265   0.282235862164250   0.375000000000000   1.0000000
N2   N   0.888003427280376   0.277690860461029   0.375000000000000   1.0000000
N2   N   0.055549673688065   0.444439542006197   0.875000000000000   1.0000000
N2   N   0.222216866715926   0.944443931404843   0.875000000000000   1.0000000
N2   N   0.555555820842721   0.944444577088025   0.875000000000000   1.0000000
N2   N   0.388890017182612   0.444442593589508   0.875000000000000   1.0000000
N2   N   0.888888608219069   0.944445221163926   0.875000000000000   1.0000000
N2   N   0.055395712846261   0.944287722013334   0.375000000000000   1.0000000
N2   N   0.722220575839403   0.444444428735074   0.875000000000000   1.0000000
N2   N   0.389516399162516   0.945335453505116   0.375000000000000   1.0000000
N2   N   0.220655286196697   0.443753090974077   0.375000000000000   1.0000000
N2   N   0.222899302291260   0.611051052021617   0.375000000000000   1.0000000
N2   N   0.721548308122809   0.943742370122295   0.375000000000000   1.0000000
N2   N   0.890002431735087   0.445136553670277   0.375000000000000   1.0000000
N2   N   0.055548264440000   0.611105373589309   0.875000000000000   1.0000000
N2   N   0.222216932526704   0.111109578574579   0.875000000000000   1.0000000
N2   N   0.722220575839403   0.611109480437665   0.875000000000000   1.0000000
N2   N   0.555558119452141   0.111115128026389   0.875000000000000   1.0000000
N2   N   0.888887810169401   0.111110571751372   0.875000000000000   1.0000000
B2   B   0.109665245352249   0.055006135422697   0.375000000000000   1.0000000
B2   B   0.618987647292791   0.563754285601618   0.375000000000000   1.0000000
B2   B   0.444449830349335   0.056461573301060   0.375000000000000   1.0000000
B2   B   0.946735037936050   0.556316642878984   0.375000000000000   1.0000000
B2   B   0.776796787646618   0.055065060489977   0.375000000000000   1.0000000
B2   B   0.111121846349894   0.722227589841611   0.875000000000000   1.0000000
B2   B   0.444427950736330   0.722219423310580   0.875000000000000   1.0000000
B2   B   0.277747616774783   0.222209685874406   0.875000000000000   1.0000000
B2   B   0.777802083607098   0.722261275990460   0.875000000000000   1.0000000
B2   B   0.611108812365250   0.222199363621225   0.875000000000000   1.0000000
B2   B   0.944458196451654   0.222218092064247   0.875000000000000   1.0000000
B2   B   0.278408048525348   0.722232889871335   0.375000000000000   1.0000000
B2   B   0.107481571524194   0.220407452428761   0.375000000000000   1.0000000
B2   B   0.444369050589493   0.224316503435327   0.375000000000000   1.0000000
B2   B   0.611649280643935   0.721779052871403   0.375000000000000   1.0000000
B2   B   0.946735037936050   0.723751728390401   0.375000000000000   1.0000000
B2   B   0.777391480764241   0.221992804170352   0.375000000000000   1.0000000
B2   B   0.111117187087132   0.888904105871107   0.875000000000000   1.0000000
B2   B   0.444436267104221   0.888884800218774   0.875000000000000   1.0000000
B2   B   0.277747616774783   0.388871264233706   0.875000000000000   1.0000000
B2   B   0.611098608431881   0.388872350119642   0.875000000000000   1.0000000
B2   B   0.777797164283411   0.888923566545675   0.875000000000000   1.0000000
B2   B   0.944465527460716   0.388875881180204   0.875000000000000   1.0000000
B2   B   0.109665245352249   0.387992443262880   0.375000000000000   1.0000000
B2   B   0.278408048525348   0.889508491987341   0.375000000000000   1.0000000
B2   B   0.610790549610038   0.888324091879609   0.375000000000000   1.0000000
B2   B   0.944788637950181   0.889431358432275   0.375000000000000   1.0000000
B2   B   0.780264805668761   0.389068942849371   0.375000000000000   1.0000000
B2   B   0.277756292097258   0.555540958881693   0.875000000000000   1.0000000
B2   B   0.111107347964397   0.055564495912441   0.875000000000000   1.0000000
B2   B   0.611098608431881   0.555559591645566   0.875000000000000   1.0000000
B2   B   0.444427950736330   0.055541860759085   0.875000000000000   1.0000000
B2   B   0.944472751681363   0.555556544674597   0.875000000000000   1.0000000
B2   B   0.111949308242053   0.555599729883049   0.375000000000000   1.0000000
B2   B   0.777793451584718   0.055563392459027   0.875000000000000   1.0000000
B2   B   0.277574610805920   0.056152506049822   0.375000000000000   1.0000000
B2   B   0.444369050589493   0.553385880487502   0.375000000000000   1.0000000
B2   B   0.782699770968623   0.558016552150980   0.375000000000000   1.0000000
B2   B   0.610790549610038   0.055799791063758   0.375000000000000   1.0000000
B2   B   0.444404820785017   0.555536645454781   0.875000000000000   1.0000000
B2   B   0.942822770522188   0.054704395436020   0.375000000000000   1.0000000
B2   B   0.277770223255678   0.722216742952831   0.875000000000000   1.0000000
B2   B   0.111103928989407   0.222218631161368   0.875000000000000   1.0000000
B2   B   0.444404820785017   0.222201508663572   0.875000000000000   1.0000000
B2   B   0.611108812365250   0.722242782077354   0.875000000000000   1.0000000
B2   B   0.944472751681363   0.722249540340102   0.875000000000000   1.0000000
B2   B   0.777797164283411   0.222206931071065   0.875000000000000   1.0000000
B2   B   0.112545106857953   0.722939220095640   0.375000000000000   1.0000000
B2   B   0.444449830349335   0.721321590381612   0.375000000000000   1.0000000
B2   B   0.273098760400654   0.221384494840817   0.375000000000000   1.0000000
B2   B   0.780264805668761   0.724529196152718   0.375000000000000   1.0000000
B2   B   0.611649280643935   0.223203561105861   0.375000000000000   1.0000000
B2   B   0.942822770522188   0.221451708419504   0.375000000000000   1.0000000
B2   B   0.111107347964397   0.388876185385284   0.875000000000000   1.0000000
B2   B   0.277770223255678   0.888886813636175   0.875000000000000   1.0000000
B2   B   0.611114066945529   0.888901946370183   0.875000000000000   1.0000000
B2   B   0.444389367817371   0.388861350575350   0.875000000000000   1.0000000
B2   B   0.944465527460716   0.888922979613839   0.875000000000000   1.0000000
B2   B   0.111949308242053   0.889682911692332   0.375000000000000   1.0000000
B2   B   0.777802083607098   0.388874140949969   0.875000000000000   1.0000000
B2   B   0.444608848835516   0.888971091084423   0.375000000000000   1.0000000
B2   B   0.273098760400654   0.385047598893166   0.375000000000000   1.0000000
B2   B   0.277574610805920   0.554755438089433   0.375000000000000   1.0000000
B2   B   0.618987647292791   0.388566695024502   0.375000000000000   1.0000000
B2   B   0.777391480764241   0.888732009927218   0.375000000000000   1.0000000
B2   B   0.944788637950181   0.388690612851234   0.375000000000000   1.0000000
B2   B   0.111117187087132   0.555546414549354   0.875000000000000   1.0000000
B2   B   0.277756292097258   0.055548666548901   0.875000000000000   1.0000000
B2   B   0.777802893576497   0.555568113454916   0.875000000000000   1.0000000
B2   B   0.611114066945529   0.055545453908675   0.875000000000000   1.0000000
B2   B   0.944458196451654   0.055573437720743   0.875000000000000   1.0000000
B2   B   0.055539070826806   0.111110281335601   0.124882083280715   1.0000000
B2   B   0.555408264056812   0.611142509810108   0.125159102889160   1.0000000
B2   B   0.388807043124178   0.111027824239816   0.124935112937787   1.0000000
B2   B   0.889077531292407   0.611205432312875   0.124855290095838   1.0000000
B2   B   0.722185070406201   0.111057419741458   0.124872068995054   1.0000000
B2   B   0.055678455284013   0.777848503351883   0.625123699332738   1.0000000
B2   B   0.388841468381728   0.777781353474187   0.625090289509647   1.0000000
B2   B   0.222175166044970   0.277754249689153   0.625083239516927   1.0000000
B2   B   0.722229176825983   0.777863281667576   0.625112206206208   1.0000000
B2   B   0.555408264056812   0.277599087580039   0.624840897110839   1.0000000
B2   B   0.888914238328267   0.277758094148354   0.625136930182700   1.0000000
B2   B   0.222261026726143   0.777797180029739   0.124925179380182   1.0000000
B2   B   0.055539070826806   0.277762122824541   0.124882083280715   1.0000000
B2   B   0.388773654831744   0.277744085884513   0.125468557906090   1.0000000
B2   B   0.555474010135664   0.777820482542113   0.124876920239139   1.0000000
B2   B   0.889011159474556   0.777878454505336   0.124835649737436   1.0000000
B2   B   0.722229176825983   0.277699228491743   0.124887793793793   1.0000000
B2   B   0.055608507752374   0.944487143051371   0.625120113990231   1.0000000
B2   B   0.388841468381728   0.944393448240876   0.625090289509647   1.0000000
B2   B   0.222196649655199   0.444418979273376   0.625095624009648   1.0000000
B2   B   0.555308964474608   0.444321148903968   0.624329876059452   1.0000000
B2   B   0.722185070406201   0.944460983998079   0.625127931004946   1.0000000
B2   B   0.889011159474556   0.444466038302556   0.625164350262565   1.0000000
B2   B   0.055608507752374   0.444454698034332   0.124879886009769   1.0000000
B2   B   0.222238773072368   0.944447778112678   0.124908705239387   1.0000000
B2   B   0.555488609008889   0.944410971171108   0.124885547070775   1.0000000
B2   B   0.388773654831744   0.444362902280567   0.125468557906090   1.0000000
B2   B   0.888914238328267   0.944489477513249   0.124863069817299   1.0000000
B2   B   0.722305573535762   0.444444552842403   0.125140818945482   1.0000000
B2   B   0.222238773072368   0.611124328293027   0.625091294760614   1.0000000
B2   B   0.055539070826806   0.111110281335601   0.625117916719285   1.0000000
B2   B   0.555408264056812   0.611142509810108   0.624840897110839   1.0000000
B2   B   0.388807043124178   0.111027824239816   0.625064887062213   1.0000000
B2   B   0.889077531292407   0.611205432312875   0.625144709904161   1.0000000
B2   B   0.055678455284013   0.611163285265464   0.124876300667262   1.0000000
B2   B   0.722185070406201   0.111057419741458   0.625127931004946   1.0000000
B2   B   0.222196649655199   0.111111003715159   0.124904375990353   1.0000000
B2   B   0.388807043124178   0.611112552217704   0.124935112937787   1.0000000
B2   B   0.722305573535762   0.611194354026695   0.125140818945482   1.0000000
B2   B   0.555474010135664   0.110986860926887   0.124876920239139   1.0000000
B2   B   0.388807043124178   0.611112552217704   0.625064887062213   1.0000000
B2   B   0.888873227618680   0.111103280476011   0.124896347932012   1.0000000
B2   B   0.222261026726143   0.777797180029739   0.625074820619818   1.0000000
B2   B   0.055539070826806   0.277762122824541   0.625117916719285   1.0000000
B2   B   0.388773654831744   0.277744085884513   0.624531442093910   1.0000000
B2   B   0.555474010135664   0.777820482542113   0.625123079760861   1.0000000
B2   B   0.889011159474556   0.777878454505336   0.625164350262565   1.0000000
B2   B   0.722229176825983   0.277699228491743   0.625112206206208   1.0000000
B2   B   0.055678455284013   0.777848503351883   0.124876300667262   1.0000000
B2   B   0.388841468381728   0.777781353474187   0.124909710490354   1.0000000
B2   B   0.222175166044970   0.277754249689153   0.124916760483073   1.0000000
B2   B   0.722229176825983   0.777863281667576   0.124887793793793   1.0000000
B2   B   0.555408264056812   0.277599087580039   0.125159102889160   1.0000000
B2   B   0.888914238328267   0.277758094148354   0.124863069817299   1.0000000
B2   B   0.055608507752374   0.444454698034332   0.625120113990231   1.0000000
B2   B   0.222238773072368   0.944447778112678   0.625091294760614   1.0000000
B2   B   0.555488609008889   0.944410971171108   0.625114452929225   1.0000000
B2   B   0.388773654831744   0.444362902280567   0.624531442093910   1.0000000
B2   B   0.888914238328267   0.944489477513249   0.625136930182700   1.0000000
B2   B   0.055608507752374   0.944487143051371   0.124879886009769   1.0000000
B2   B   0.722305573535762   0.444444552842403   0.624859181054519   1.0000000
B2   B   0.388841468381728   0.944393448240876   0.124909710490354   1.0000000
B2   B   0.222196649655199   0.444418979273376   0.124904375990353   1.0000000
B2   B   0.222238773072368   0.611124328293027   0.124908705239387   1.0000000
B2   B   0.555308964474608   0.444321148903968   0.125670123940548   1.0000000
B2   B   0.722185070406201   0.944460983998079   0.124872068995054   1.0000000
B2   B   0.889011159474556   0.444466038302556   0.124835649737436   1.0000000
B2   B   0.055678455284013   0.611163285265464   0.625123699332738   1.0000000
B2   B   0.222196649655199   0.111111003715159   0.625095624009648   1.0000000
B2   B   0.722305573535762   0.611194354026695   0.624859181054519   1.0000000
B2   B   0.555474010135664   0.110986860926887   0.625123079760861   1.0000000
B2   B   0.888873227618680   0.111103280476011   0.625103652067988   1.0000000


