data_1
_audit_creation_method   'vasp2cif'
_cell_length_a    14.93631414619966
_cell_length_b    14.936314146199727
_cell_length_c    13.341276283792837
_cell_angle_alpha    90.0
_cell_angle_beta    90.0
_cell_angle_gamma    119.99999999999984

_symmetry_space_group_name_H-M    'P 1'
loop_
_atom_site_label
_atom_site_type_symbol
_atom_site_fract_x
_atom_site_fract_y
_atom_site_fract_z
_atom_site_occupancy
C2   C   0.611904858446522   0.391819940788096   0.375000000000000   1.0000000
C2   C   0.446581749008252   0.391819940788096   0.375000000000000   1.0000000
C2   C   0.553613739399027   0.440560812131381   0.375000000000000   1.0000000
N2   N   0.111106688210569   0.055558345258310   0.125076258141288   1.0000000
N2   N   0.611099990046301   0.555533313425931   0.124277983067655   1.0000000
N2   N   0.444455481875070   0.055575342665184   0.125106017457957   1.0000000
N2   N   0.944438655392353   0.555544017499115   0.125057800305841   1.0000000
N2   N   0.777780987980174   0.055553836721839   0.125021200544037   1.0000000
N2   N   0.111107142493663   0.722219380851590   0.624986203159290   1.0000000
N2   N   0.444445180747311   0.722208458510579   0.624919902662170   1.0000000
N2   N   0.277763885154647   0.222234847418263   0.624872488624286   1.0000000
N2   N   0.777762669217886   0.722210038369107   0.624826672251463   1.0000000
N2   N   0.611137628930286   0.222234847418263   0.624872488624286   1.0000000
N2   N   0.944443417633189   0.222220168599715   0.624956617885474   1.0000000
N2   N   0.277778905024598   0.722219380851590   0.125013796840710   1.0000000
N2   N   0.111085731781688   0.222213821602539   0.125060968437839   1.0000000
N2   N   0.444460561427641   0.222254456188617   0.125207755865694   1.0000000
N2   N   0.611114035817891   0.722210038369107   0.125173327748537   1.0000000
N2   N   0.944429944429941   0.722208458510579   0.125080097337830   1.0000000
N2   N   0.777794756487522   0.222213821602539   0.125060968437839   1.0000000
N2   N   0.111109537762390   0.888892419396313   0.624967242470959   1.0000000
N2   N   0.444449548300595   0.888892419396313   0.624967242470959   1.0000000
N2   N   0.277755331400097   0.388871703986280   0.624871611748498   1.0000000
N2   N   0.611126997449814   0.388878790479252   0.625462117489945   1.0000000
N2   N   0.777778100534155   0.888889534401637   0.624928865155002   1.0000000
N2   N   0.944450516650224   0.388886488447297   0.624935078693151   1.0000000
N2   N   0.111102638463743   0.388886488447297   0.125064921306849   1.0000000
N2   N   0.277782430475900   0.888898194285128   0.125038390521568   1.0000000
N2   N   0.611113524399789   0.888883929535268   0.125067254498928   1.0000000
N2   N   0.444418459696109   0.388878790479252   0.124537882510055   1.0000000
N2   N   0.944437071802152   0.888883929535268   0.125067254498928   1.0000000
N2   N   0.777783039252846   0.388871703986280   0.125128388251501   1.0000000
N2   N   0.277772028773434   0.555544017499115   0.624942199694158   1.0000000
N2   N   0.111106688210569   0.055558345258310   0.624923741858712   1.0000000
N2   N   0.611099990046301   0.555533313425931   0.625722016932345   1.0000000
N2   N   0.444455481875070   0.055575342665184   0.624893982542043   1.0000000
N2   N   0.944438655392353   0.555544017499115   0.624942199694158   1.0000000
N2   N   0.111109489372317   0.555552312077970   0.125025290247718   1.0000000
N2   N   0.777780987980174   0.055553836721839   0.624978799455964   1.0000000
N2   N   0.277786527456779   0.055575342665184   0.125106017457957   1.0000000
N2   N   0.444427007828024   0.555524059822524   0.125073620549557   1.0000000
N2   N   0.777763718661165   0.555524059822524   0.125073620549557   1.0000000
N2   N   0.611118323714419   0.055558345258310   0.125076258141288   1.0000000
N2   N   0.444427007828024   0.555524059822524   0.624926379450444   1.0000000
N2   N   0.944439515408322   0.055553836721839   0.125021200544037   1.0000000
N2   N   0.277778905024598   0.722219380851590   0.624986203159290   1.0000000
N2   N   0.111085731781688   0.222213821602539   0.624939031562162   1.0000000
N2   N   0.444460561427641   0.222254456188617   0.624792244134305   1.0000000
N2   N   0.611114035817891   0.722210038369107   0.624826672251463   1.0000000
N2   N   0.944429944429941   0.722208458510579   0.624919902662170   1.0000000
N2   N   0.777794756487522   0.222213821602539   0.624939031562162   1.0000000
N2   N   0.111107142493663   0.722219380851590   0.125013796840710   1.0000000
N2   N   0.444445180747311   0.722208458510579   0.125080097337830   1.0000000
N2   N   0.277763885154647   0.222234847418263   0.125127511375714   1.0000000
N2   N   0.777762669217886   0.722210038369107   0.125173327748537   1.0000000
N2   N   0.611137628930286   0.222234847418263   0.125127511375714   1.0000000
N2   N   0.944443417633189   0.222220168599715   0.125043382114527   1.0000000
N2   N   0.111102638463743   0.388886488447297   0.624935078693151   1.0000000
N2   N   0.277782430475900   0.888898194285128   0.624961609478432   1.0000000
N2   N   0.611113524399789   0.888883929535268   0.624932745501071   1.0000000
N2   N   0.444418459696109   0.388878790479252   0.625462117489945   1.0000000
N2   N   0.944437071802152   0.888883929535268   0.624932745501071   1.0000000
N2   N   0.111109537762390   0.888892419396313   0.125032757529041   1.0000000
N2   N   0.777783039252846   0.388871703986280   0.624871611748498   1.0000000
N2   N   0.444449548300595   0.888892419396313   0.125032757529041   1.0000000
N2   N   0.277755331400097   0.388871703986280   0.125128388251501   1.0000000
N2   N   0.277772028773434   0.555544017499115   0.125057800305841   1.0000000
N2   N   0.611126997449814   0.388878790479252   0.124537882510055   1.0000000
N2   N   0.777778100534155   0.888889534401637   0.125071134844997   1.0000000
N2   N   0.944450516650224   0.388886488447297   0.125064921306849   1.0000000
N2   N   0.111109489372317   0.555552312077970   0.624974709752282   1.0000000
N2   N   0.277786527456779   0.055575342665184   0.624893982542043   1.0000000
N2   N   0.777763718661165   0.555524059822524   0.624926379450444   1.0000000
N2   N   0.611118323714419   0.055558345258310   0.624923741858712   1.0000000
N2   N   0.944439515408322   0.055553836721839   0.624978799455964   1.0000000
N2   N   0.055444295739736   0.110799992235187   0.375000000000000   1.0000000
N2   N   0.551008920781346   0.611326423317762   0.375000000000000   1.0000000
N2   N   0.390564376763931   0.114462086861204   0.375000000000000   1.0000000
N2   N   0.888318717849814   0.609842583459516   0.375000000000000   1.0000000
N2   N   0.722022363162115   0.110799992235187   0.375000000000000   1.0000000
N2   N   0.055570670730158   0.777803400932958   0.875000000000000   1.0000000
N2   N   0.388899396869464   0.777803400932958   0.875000000000000   1.0000000
N2   N   0.222231817512601   0.277798331136041   0.875000000000000   1.0000000
N2   N   0.722232540203284   0.777798413739904   0.875000000000000   1.0000000
N2   N   0.555563595179515   0.277794262321663   0.875000000000000   1.0000000
N2   N   0.888900579264550   0.277799983966019   0.875000000000000   1.0000000
N2   N   0.222438157342969   0.778209648019266   0.375000000000000   1.0000000
N2   N   0.055354058641815   0.277463301221061   0.375000000000000   1.0000000
N2   N   0.390968617885211   0.282404401358877   0.375000000000000   1.0000000
N2   N   0.555143918603012   0.776763206071095   0.375000000000000   1.0000000
N2   N   0.888285954134747   0.776763206071095   0.375000000000000   1.0000000
N2   N   0.722337832767663   0.277316862475180   0.375000000000000   1.0000000
N2   N   0.055567239087422   0.944466390776881   0.875000000000000   1.0000000
N2   N   0.388900936079108   0.944467503823357   0.875000000000000   1.0000000
N2   N   0.222232402012884   0.444468529984175   0.875000000000000   1.0000000
N2   N   0.555565203047922   0.444463739429180   0.875000000000000   1.0000000
N2   N   0.722230460625016   0.944463670873989   0.875000000000000   1.0000000
N2   N   0.888902794637954   0.444468529984175   0.875000000000000   1.0000000
N2   N   0.055422619740258   0.444178572813845   0.375000000000000   1.0000000
N2   N   0.222996738950042   0.945634291027804   0.375000000000000   1.0000000
N2   N   0.555446611937519   0.944596379105393   0.375000000000000   1.0000000
N2   N   0.389203743838802   0.441536258998369   0.375000000000000   1.0000000
N2   N   0.888679713136177   0.943912607345542   0.375000000000000   1.0000000
N2   N   0.718999181826231   0.441536258998369   0.375000000000000   1.0000000
N2   N   0.222231873702418   0.611134407187747   0.875000000000000   1.0000000
N2   N   0.055564899195889   0.111128141361182   0.875000000000000   1.0000000
N2   N   0.555564334999666   0.611133468441274   0.875000000000000   1.0000000
N2   N   0.388897415629259   0.111128164591860   0.875000000000000   1.0000000
N2   N   0.888903756471884   0.611134830745983   0.875000000000000   1.0000000
N2   N   0.055499090409643   0.610987425250378   0.375000000000000   1.0000000
N2   N   0.722229908831949   0.111128141361182   0.875000000000000   1.0000000
N2   N   0.223570229036453   0.112670685563071   0.375000000000000   1.0000000
N2   N   0.388190532276359   0.609842583459516   0.375000000000000   1.0000000
N2   N   0.726984169203079   0.611326423317762   0.375000000000000   1.0000000
N2   N   0.555767123193282   0.112670685563071   0.375000000000000   1.0000000
N2   N   0.388897740940757   0.611134830745983   0.875000000000000   1.0000000
N2   N   0.888669107764377   0.110671548862104   0.375000000000000   1.0000000
N2   N   0.222234961986501   0.777803257306345   0.875000000000000   1.0000000
N2   N   0.055566071368127   0.277799983966019   0.875000000000000   1.0000000
N2   N   0.388897333808812   0.277794262321663   0.875000000000000   1.0000000
N2   N   0.555563963236495   0.777800202253608   0.875000000000000   1.0000000
N2   N   0.888902905683776   0.777800202253608   0.875000000000000   1.0000000
N2   N   0.722233180290097   0.277798331136041   0.875000000000000   1.0000000
N2   N   0.055489973717205   0.777733433609817   0.375000000000000   1.0000000
N2   N   0.388910126559276   0.777733433609817   0.375000000000000   1.0000000
N2   N   0.221645696374181   0.277316862475180   0.375000000000000   1.0000000
N2   N   0.721992201829602   0.777317736992540   0.375000000000000   1.0000000
N2   N   0.558102450140331   0.282404401358877   0.375000000000000   1.0000000
N2   N   0.888775909245903   0.277463301221061   0.375000000000000   1.0000000
N2   N   0.055567602247941   0.444468537829211   0.875000000000000   1.0000000
N2   N   0.222233234410912   0.944467503823357   0.875000000000000   1.0000000
N2   N   0.555565818356131   0.944466390776881   0.875000000000000   1.0000000
N2   N   0.388899590086562   0.444467875085659   0.875000000000000   1.0000000
N2   N   0.888899876915638   0.944463670873989   0.875000000000000   1.0000000
N2   N   0.055816433834552   0.944596379105393   0.375000000000000   1.0000000
N2   N   0.722234951665761   0.444467875085659   0.875000000000000   1.0000000
N2   N   0.389304218744427   0.945634291027804   0.375000000000000   1.0000000
N2   N   0.222663537772266   0.443953931960595   0.375000000000000   1.0000000
N2   N   0.222155001507399   0.610987425250378   0.375000000000000   1.0000000
N2   N   0.721899560876031   0.943912607345542   0.375000000000000   1.0000000
N2   N   0.887957060854994   0.443953931960595   0.375000000000000   1.0000000
N2   N   0.055569200151987   0.611134407187747   0.875000000000000   1.0000000
N2   N   0.222231002791971   0.111128856685276   0.875000000000000   1.0000000
N2   N   0.722235800108273   0.611133468441274   0.875000000000000   1.0000000
N2   N   0.555564520559970   0.111128856685276   0.875000000000000   1.0000000
N2   N   0.888897591642709   0.111128516618761   0.875000000000000   1.0000000
B2   B   0.111614257589308   0.055942408182203   0.375000000000000   1.0000000
B2   B   0.444845459942219   0.057058671972417   0.375000000000000   1.0000000
B2   B   0.944287542868608   0.555135110887750   0.375000000000000   1.0000000
B2   B   0.777469485542271   0.054966431834385   0.375000000000000   1.0000000
B2   B   0.111118619395475   0.722244951611323   0.875000000000000   1.0000000
B2   B   0.444463973070012   0.722237480146063   0.875000000000000   1.0000000
B2   B   0.277801318030926   0.222254604909082   0.875000000000000   1.0000000
B2   B   0.777766657256457   0.722216710105045   0.875000000000000   1.0000000
B2   B   0.611119953544829   0.222254604909082   0.875000000000000   1.0000000
B2   B   0.944453316162004   0.222239965657349   0.875000000000000   1.0000000
B2   B   0.277827596157825   0.722312060351088   0.375000000000000   1.0000000
B2   B   0.110531155138315   0.221693522810327   0.375000000000000   1.0000000
B2   B   0.446362497086107   0.226058327505551   0.375000000000000   1.0000000
B2   B   0.611583500197265   0.720601138001531   0.375000000000000   1.0000000
B2   B   0.943831397847501   0.721351963405064   0.375000000000000   1.0000000
B2   B   0.777829034338684   0.221693522810327   0.375000000000000   1.0000000
B2   B   0.111112431982747   0.888901646459028   0.875000000000000   1.0000000
B2   B   0.444455881142959   0.888901646459028   0.875000000000000   1.0000000
B2   B   0.277816714349368   0.388930676668290   0.875000000000000   1.0000000
B2   B   0.611119785144343   0.388941372249796   0.875000000000000   1.0000000
B2   B   0.777771974048716   0.888877281430760   0.875000000000000   1.0000000
B2   B   0.944454238955732   0.388919435878791   0.875000000000000   1.0000000
B2   B   0.111186034067252   0.388604171891413   0.375000000000000   1.0000000
B2   B   0.278098618185549   0.889530569704434   0.375000000000000   1.0000000
B2   B   0.610755062913507   0.888203338044525   0.375000000000000   1.0000000
B2   B   0.944114941797690   0.888203338044525   0.375000000000000   1.0000000
B2   B   0.776761813915081   0.387710144486109   0.375000000000000   1.0000000
B2   B   0.277808070801935   0.555589163590041   0.875000000000000   1.0000000
B2   B   0.111115495043076   0.055566750832756   0.875000000000000   1.0000000
B2   B   0.611124832938211   0.555582999209750   0.875000000000000   1.0000000
B2   B   0.444454671017753   0.055574800885726   0.875000000000000   1.0000000
B2   B   0.944447759454770   0.555589163590041   0.875000000000000   1.0000000
B2   B   0.111044731076676   0.555422795486673   0.375000000000000   1.0000000
B2   B   0.777779592751116   0.055558057930014   0.875000000000000   1.0000000
B2   B   0.278879878696869   0.057058671972417   0.375000000000000   1.0000000
B2   B   0.443702493957451   0.553163901068148   0.375000000000000   1.0000000
B2   B   0.776128073777354   0.553163901068148   0.375000000000000   1.0000000
B2   B   0.610994817259567   0.055942408182203   0.375000000000000   1.0000000
B2   B   0.444486655619851   0.555591632889997   0.875000000000000   1.0000000
B2   B   0.944163612958786   0.054966431834385   0.375000000000000   1.0000000
B2   B   0.277792998882512   0.722244951611323   0.875000000000000   1.0000000
B2   B   0.111126705120949   0.222244287414108   0.875000000000000   1.0000000
B2   B   0.444462724492438   0.222258782318204   0.875000000000000   1.0000000
B2   B   0.611116719515267   0.722216710105045   0.875000000000000   1.0000000
B2   B   0.944440173742715   0.722237480146063   0.875000000000000   1.0000000
B2   B   0.777784248959830   0.222244287414108   0.875000000000000   1.0000000
B2   B   0.111151130859942   0.722312060351088   0.375000000000000   1.0000000
B2   B   0.444187232224228   0.721351963405064   0.375000000000000   1.0000000
B2   B   0.278518399373699   0.223876105410119   0.375000000000000   1.0000000
B2   B   0.775684304470937   0.720601138001531   0.375000000000000   1.0000000
B2   B   0.612024372703091   0.223876105410119   0.375000000000000   1.0000000
B2   B   0.944231438078348   0.221796209490025   0.375000000000000   1.0000000
B2   B   0.111131863589737   0.388919435878791   0.875000000000000   1.0000000
B2   B   0.277787035936533   0.888907405206387   0.875000000000000   1.0000000
B2   B   0.611116055138112   0.888887289794454   0.875000000000000   1.0000000
B2   B   0.444488253772125   0.388941372249796   0.875000000000000   1.0000000
B2   B   0.944437901323014   0.888887289794454   0.875000000000000   1.0000000
B2   B   0.111402687106269   0.889121083103041   0.375000000000000   1.0000000
B2   B   0.777780628985593   0.388930676668290   0.875000000000000   1.0000000
B2   B   0.444385062663443   0.889121083103041   0.375000000000000   1.0000000
B2   B   0.277614997237698   0.387710144486109   0.375000000000000   1.0000000
B2   B   0.277514234685799   0.555135110887750   0.375000000000000   1.0000000
B2   B   0.777447401941989   0.888228137217316   0.375000000000000   1.0000000
B2   B   0.944084804490834   0.388604171891413   0.375000000000000   1.0000000
B2   B   0.111126081004349   0.555585495342027   0.875000000000000   1.0000000
B2   B   0.277786796534637   0.055574800885726   0.875000000000000   1.0000000
B2   B   0.777771643936811   0.555591632889997   0.875000000000000   1.0000000
B2   B   0.611117922456352   0.055566750832756   0.875000000000000   1.0000000
B2   B   0.944445131845562   0.055558057930014   0.875000000000000   1.0000000
B2   B   0.055526695062769   0.111098950532783   0.124990858506544   1.0000000
B2   B   0.555637827174839   0.611019742023121   0.125374823128852   1.0000000
B2   B   0.388911725114088   0.111156783561512   0.125021793077038   1.0000000
B2   B   0.888788209083813   0.611075640832949   0.125098905528293   1.0000000
B2   B   0.722238922136678   0.111098950532783   0.124990858506544   1.0000000
B2   B   0.055492941278555   0.777739522104592   0.624981083122205   1.0000000
B2   B   0.388913247492701   0.777739522104592   0.624981083122205   1.0000000
B2   B   0.222210780395508   0.277804597510650   0.625023631587191   1.0000000
B2   B   0.722172348526267   0.777678030385869   0.624810213348791   1.0000000
B2   B   0.555640111559851   0.277927837632489   0.625179381145508   1.0000000
B2   B   0.888904503273666   0.277784966907752   0.625002244550291   1.0000000
B2   B   0.222210910089933   0.777755153513202   0.124996177924446   1.0000000
B2   B   0.055547130300743   0.277784966907752   0.124997755449710   1.0000000
B2   B   0.388954392739302   0.277927837632489   0.124820618854492   1.0000000
B2   B   0.555590786928516   0.777697463483483   0.125143381769973   1.0000000
B2   B   0.888773343221631   0.777697463483483   0.125143381769973   1.0000000
B2   B   0.722260483781806   0.277804597510650   0.124976368412809   1.0000000
B2   B   0.055504295281545   0.944406854876939   0.624985916343011   1.0000000
B2   B   0.388893475408963   0.944427718264339   0.625002563970169   1.0000000
B2   B   0.222238988979746   0.444461459008758   0.624980930846624   1.0000000
B2   B   0.555635448580356   0.444604230494033   0.625045478233272   1.0000000
B2   B   0.722218025157364   0.944398191373784   0.624980818183962   1.0000000
B2   B   0.888889136695676   0.444461459008758   0.624980930846624   1.0000000
B2   B   0.055561876856030   0.444457087045382   0.125001132618133   1.0000000
B2   B   0.222200909522041   0.944427718264339   0.124997436029831   1.0000000
B2   B   0.555569226262065   0.944406854876939   0.125014083656989   1.0000000
B2   B   0.388983532205434   0.444490121053927   0.124872220338725   1.0000000
B2   B   0.888846832883083   0.944398191373784   0.125019181816037   1.0000000
B2   B   0.722173255515163   0.444490121053927   0.124872220338725   1.0000000
B2   B   0.222237030123626   0.611103849774097   0.625002416631236   1.0000000
B2   B   0.055526695062769   0.111098950532783   0.625009141493455   1.0000000
B2   B   0.555637827174839   0.611019742023121   0.624625176871149   1.0000000
B2   B   0.388911725114088   0.111156783561512   0.624978206922962   1.0000000
B2   B   0.888788209083813   0.611075640832949   0.624901094471707   1.0000000
B2   B   0.055533486317142   0.611103849774097   0.124997583368764   1.0000000
B2   B   0.722238922136678   0.111098950532783   0.625009141493455   1.0000000
B2   B   0.222208262022631   0.111125901638146   0.125003384064074   1.0000000
B2   B   0.388954098415793   0.611075640832949   0.125098905528293   1.0000000
B2   B   0.722048581514945   0.611019742023121   0.125374823128852   1.0000000
B2   B   0.555584306282179   0.111125901638146   0.125003384064074   1.0000000
B2   B   0.388954098415793   0.611075640832949   0.624901094471707   1.0000000
B2   B   0.888881517844536   0.111096369022417   0.124989477918455   1.0000000
B2   B   0.222210910089933   0.777755153513202   0.625003822075554   1.0000000
B2   B   0.055547130300743   0.277784966907752   0.625002244550291   1.0000000
B2   B   0.388954392739302   0.277927837632489   0.625179381145508   1.0000000
B2   B   0.555590786928516   0.777697463483483   0.624856618230026   1.0000000
B2   B   0.888773343221631   0.777697463483483   0.624856618230026   1.0000000
B2   B   0.722260483781806   0.277804597510650   0.625023631587191   1.0000000
B2   B   0.055492941278555   0.777739522104592   0.125018916877796   1.0000000
B2   B   0.388913247492701   0.777739522104592   0.125018916877796   1.0000000
B2   B   0.222210780395508   0.277804597510650   0.124976368412809   1.0000000
B2   B   0.722172348526267   0.777678030385869   0.125189786651209   1.0000000
B2   B   0.555640111559851   0.277927837632489   0.124820618854492   1.0000000
B2   B   0.888904503273666   0.277784966907752   0.124997755449710   1.0000000
B2   B   0.055561876856030   0.444457087045382   0.624998867381867   1.0000000
B2   B   0.222200909522041   0.944427718264339   0.625002563970169   1.0000000
B2   B   0.555569226262065   0.944406854876939   0.624985916343011   1.0000000
B2   B   0.388983532205434   0.444490121053927   0.625127779661268   1.0000000
B2   B   0.888846832883083   0.944398191373784   0.624980818183962   1.0000000
B2   B   0.055504295281545   0.944406854876939   0.125014083656989   1.0000000
B2   B   0.722173255515163   0.444490121053927   0.625127779661268   1.0000000
B2   B   0.388893475408963   0.944427718264339   0.124997436029831   1.0000000
B2   B   0.222238988979746   0.444461459008758   0.125019069153376   1.0000000
B2   B   0.222237030123626   0.611103849774097   0.124997583368764   1.0000000
B2   B   0.555635448580356   0.444604230494033   0.124954521766729   1.0000000
B2   B   0.722218025157364   0.944398191373784   0.125019181816037   1.0000000
B2   B   0.888889136695676   0.444461459008758   0.125019069153376   1.0000000
B2   B   0.055533486317142   0.611103849774097   0.625002416631236   1.0000000
B2   B   0.222208262022631   0.111125901638146   0.624996615935926   1.0000000
B2   B   0.722048581514945   0.611019742023121   0.624625176871149   1.0000000
B2   B   0.555584306282179   0.111125901638146   0.624996615935926   1.0000000
B2   B   0.888881517844536   0.111096369022417   0.625010522081545   1.0000000


