data_1
_audit_creation_method   'vasp2cif'
_cell_length_a    14.93631414619966
_cell_length_b    14.936314146199727
_cell_length_c    13.341276283792837
_cell_angle_alpha    90.0
_cell_angle_beta    90.0
_cell_angle_gamma    119.99999999999984

_symmetry_space_group_name_H-M    'P 1'
loop_
_atom_site_label
_atom_site_type_symbol
_atom_site_fract_x
_atom_site_fract_y
_atom_site_fract_z
_atom_site_occupancy
Ga2   Ga   0.555555555555557   0.444444444444443   0.375000000000000   1.0000000
N2   N   0.111050081143575   0.055542605540319   0.125633952645399   1.0000000
N2   N   0.611356800922219   0.556046935177882   0.118760036504500   1.0000000
N2   N   0.444468829121097   0.055577019470625   0.124280680871242   1.0000000
N2   N   0.944422980529270   0.555531170878831   0.124280680871242   1.0000000
N2   N   0.777815719646569   0.055574526489949   0.127398688972992   1.0000000
N2   N   0.111091967001226   0.722212650167238   0.623089788166425   1.0000000
N2   N   0.444468829121097   0.722225142983933   0.625719319128779   1.0000000
N2   N   0.277566668331643   0.222114919603588   0.628411541808887   1.0000000
N2   N   0.777885080396258   0.722433331668284   0.628411541808887   1.0000000
N2   N   0.611214917938563   0.222114919603588   0.628411541808887   1.0000000
N2   N   0.944425473510035   0.222184280353465   0.622601311027072   1.0000000
N2   N   0.277787349832702   0.722212650167238   0.126910211833648   1.0000000
N2   N   0.110969976721828   0.222151655027547   0.125255745212436   1.0000000
N2   N   0.444446807082770   0.222226947498861   0.120830319115531   1.0000000
N2   N   0.611214917938563   0.722433331668284   0.121588458191074   1.0000000
N2   N   0.944422980529270   0.722225142983933   0.124280680871242   1.0000000
N2   N   0.777848344972422   0.222151655027547   0.125255745212436   1.0000000
N2   N   0.111102069897865   0.888897930102094   0.623575103445308   1.0000000
N2   N   0.444462526870977   0.888897930102094   0.623575103445308   1.0000000
N2   N   0.277566668331643   0.388785082061385   0.628411541808887   1.0000000
N2   N   0.611356800922219   0.388643199077723   0.631239963495622   1.0000000
N2   N   0.777848344972422   0.889030023278111   0.624744254787488   1.0000000
N2   N   0.944457394459727   0.388840808936602   0.624366047354647   1.0000000
N2   N   0.111050081143575   0.388840808936602   0.125633952645399   1.0000000
N2   N   0.277787349832702   0.888908032998733   0.126910211833648   1.0000000
N2   N   0.611159191063334   0.888949918856331   0.125633952645394   1.0000000
N2   N   0.443953064822208   0.388643199077723   0.118760036504496   1.0000000
N2   N   0.944457394459727   0.888949918856331   0.125633952645399   1.0000000
N2   N   0.777885080396258   0.388785082061385   0.121588458191074   1.0000000
N2   N   0.277774857016094   0.555531170878833   0.625719319128779   1.0000000
N2   N   0.111050081143575   0.055542605540319   0.624366047354647   1.0000000
N2   N   0.611356800922219   0.556046935177882   0.631239963495622   1.0000000
N2   N   0.444468829121097   0.055577019470625   0.625719319128779   1.0000000
N2   N   0.944422980529270   0.555531170878831   0.625719319128779   1.0000000
N2   N   0.111102069897865   0.555537473129051   0.126424896554805   1.0000000
N2   N   0.777815719646569   0.055574526489949   0.622601311027072   1.0000000
N2   N   0.277774857016094   0.055577019470625   0.124280680871242   1.0000000
N2   N   0.444446807082770   0.555553192917196   0.120830319115531   1.0000000
N2   N   0.777773052501124   0.555553192917196   0.120830319115531   1.0000000
N2   N   0.611159191063334   0.055542605540319   0.125633952645394   1.0000000
N2   N   0.444446807082770   0.555553192917196   0.629169680884399   1.0000000
N2   N   0.944425473510035   0.055574526489949   0.127398688972992   1.0000000
N2   N   0.277787349832702   0.722212650167238   0.623089788166425   1.0000000
N2   N   0.110969976721828   0.222151655027547   0.624744254787488   1.0000000
N2   N   0.444446807082770   0.222226947498867   0.629169680884399   1.0000000
N2   N   0.611214917938563   0.722433331668284   0.628411541808887   1.0000000
N2   N   0.944422980529270   0.722225142983933   0.625719319128779   1.0000000
N2   N   0.777848344972422   0.222151655027547   0.624744254787488   1.0000000
N2   N   0.111091967001226   0.722212650167238   0.126910211833648   1.0000000
N2   N   0.444468829121097   0.722225142983933   0.124280680871242   1.0000000
N2   N   0.277566668331643   0.222114919603588   0.121588458191075   1.0000000
N2   N   0.777885080396258   0.722433331668284   0.121588458191074   1.0000000
N2   N   0.611214917938563   0.222114919603588   0.121588458191074   1.0000000
N2   N   0.944425473510035   0.222184280353465   0.127398688972992   1.0000000
N2   N   0.111050081143575   0.388840808936602   0.624366047354647   1.0000000
N2   N   0.277787349832702   0.888908032998733   0.623089788166425   1.0000000
N2   N   0.611159191063334   0.888949918856331   0.624366047354647   1.0000000
N2   N   0.443953064822208   0.388643199077723   0.631239963495622   1.0000000
N2   N   0.944457394459727   0.888949918856331   0.624366047354647   1.0000000
N2   N   0.111102069897865   0.888897930102094   0.126424896554805   1.0000000
N2   N   0.777885080396258   0.388785082061385   0.628411541808887   1.0000000
N2   N   0.444462526870977   0.888897930102094   0.126424896554798   1.0000000
N2   N   0.277566668331688   0.388785082061385   0.121588458191074   1.0000000
N2   N   0.277774857016094   0.555531170878833   0.124280680871242   1.0000000
N2   N   0.611356800922219   0.388643199077723   0.118760036504496   1.0000000
N2   N   0.777848344972422   0.889030023278111   0.125255745212436   1.0000000
N2   N   0.944457394459727   0.388840808936602   0.125633952645399   1.0000000
N2   N   0.111102069897865   0.555537473129051   0.623575103445308   1.0000000
N2   N   0.277774857016094   0.055577019470625   0.625719319128779   1.0000000
N2   N   0.777773052501124   0.555553192917196   0.629169680884399   1.0000000
N2   N   0.611159191063334   0.055542605540318   0.624366047354647   1.0000000
N2   N   0.944425473510035   0.055574526489949   0.622601311027072   1.0000000
N2   N   0.054214353207791   0.110168780749281   0.375000000000000   1.0000000
N2   N   0.555963507966541   0.622529430069738   0.375000000000000   1.0000000
N2   N   0.387513930030430   0.108361193394149   0.375000000000000   1.0000000
N2   N   0.891638806605798   0.612486069969554   0.375000000000000   1.0000000
N2   N   0.722621094208132   0.110168780749281   0.375000000000000   1.0000000
N2   N   0.055599203030764   0.777792772983522   0.875000000000000   1.0000000
N2   N   0.388860236619524   0.777792772983522   0.875000000000000   1.0000000
N2   N   0.222248011778820   0.277790672556086   0.875000000000000   1.0000000
N2   N   0.722209327443888   0.777751988221164   0.875000000000000   1.0000000
N2   N   0.555502953229729   0.277723552816077   0.875000000000000   1.0000000
N2   N   0.888889854563555   0.277792238795223   0.875000000000000   1.0000000
N2   N   0.222222222222221   0.777777777777779   0.375000000000000   1.0000000
N2   N   0.054214353207790   0.277378905791876   0.375000000000000   1.0000000
N2   N   0.377470569930297   0.266767411230110   0.375000000000000   1.0000000
N2   N   0.555005624594480   0.782322029352195   0.375000000000000   1.0000000
N2   N   0.893983071424347   0.782322029352195   0.375000000000000   1.0000000
N2   N   0.724434793368197   0.275565206631759   0.375000000000000   1.0000000
N2   N   0.055565855614418   0.944434144385586   0.875000000000000   1.0000000
N2   N   0.388860236619524   0.944400796969221   0.875000000000000   1.0000000
N2   N   0.222221889039318   0.444477193028287   0.875000000000000   1.0000000
N2   N   0.555555555555557   0.444444444444443   0.875000000000000   1.0000000
N2   N   0.722207761204890   0.944430949101699   0.875000000000000   1.0000000
N2   N   0.888921970655530   0.444477193028287   0.875000000000000   1.0000000
N2   N   0.055843610718452   0.445020554770264   0.375000000000000   1.0000000
N2   N   0.221802697392635   0.943203321217328   0.375000000000000   1.0000000
N2   N   0.554979445229719   0.944156389281444   0.375000000000000   1.0000000
N2   N   0.377470569930297   0.444036492033403   0.375000000000000   1.0000000
N2   N   0.889831219250790   0.945785646792276   0.375000000000000   1.0000000
N2   N   0.733232588769855   0.444036492033403   0.375000000000000   1.0000000
N2   N   0.222207227016315   0.611139763380392   0.875000000000000   1.0000000
N2   N   0.055569050898324   0.111110145436480   0.875000000000000   1.0000000
N2   N   0.555502953229729   0.611112733747074   0.875000000000000   1.0000000
N2   N   0.388843130741585   0.111019594816512   0.875000000000000   1.0000000
N2   N   0.888980405183486   0.611156869258358   0.875000000000000   1.0000000
N2   N   0.056796678782720   0.611932709508598   0.375000000000000   1.0000000
N2   N   0.722207761204890   0.111110145436480   0.875000000000000   1.0000000
N2   N   0.217677970647717   0.106016928575633   0.375000000000000   1.0000000
N2   N   0.387513930030430   0.612486069969554   0.375000000000000   1.0000000
N2   N   0.733232588769851   0.622529430069738   0.375000000000000   1.0000000
N2   N   0.555005624594480   0.106016928575633   0.375000000000000   1.0000000
N2   N   0.388843130741585   0.611156869258358   0.875000000000000   1.0000000
N2   N   0.888888888888886   0.111111111111114   0.375000000000000   1.0000000
N2   N   0.222222222222221   0.777777777777779   0.875000000000000   1.0000000
N2   N   0.055569050898324   0.277792238795223   0.875000000000000   1.0000000
N2   N   0.388887266253106   0.277723552816077   0.875000000000000   1.0000000
N2   N   0.555522806971819   0.777778110960682   0.875000000000000   1.0000000
N2   N   0.888921970655530   0.777778110960682   0.875000000000000   1.0000000
N2   N   0.722209327443888   0.277790672556086   0.875000000000000   1.0000000
N2   N   0.056796678782720   0.778197302607394   0.375000000000000   1.0000000
N2   N   0.388067290491328   0.778197302607394   0.375000000000000   1.0000000
N2   N   0.217797079930235   0.275565206631759   0.375000000000000   1.0000000
N2   N   0.724434793368197   0.782202920069817   0.375000000000000   1.0000000
N2   N   0.555963507966541   0.266767411230110   0.375000000000000   1.0000000
N2   N   0.889831219250790   0.277378905791876   0.375000000000000   1.0000000
N2   N   0.055565855614418   0.444465044562209   0.875000000000000   1.0000000
N2   N   0.222207227016315   0.944400796969221   0.875000000000000   1.0000000
N2   N   0.555534955437845   0.944434144385586   0.875000000000000   1.0000000
N2   N   0.388887266253106   0.444497046770299   0.875000000000000   1.0000000
N2   N   0.888889854563555   0.944430949101699   0.875000000000000   1.0000000
N2   N   0.055843610718452   0.944156389281444   0.375000000000000   1.0000000
N2   N   0.722276447183946   0.444497046770299   0.875000000000000   1.0000000
N2   N   0.388067290491328   0.943203321217328   0.375000000000000   1.0000000
N2   N   0.217677970647713   0.444994375405450   0.375000000000000   1.0000000
N2   N   0.221802697392635   0.611932709508598   0.375000000000000   1.0000000
N2   N   0.722621094208132   0.945785646792276   0.375000000000000   1.0000000
N2   N   0.893983071424347   0.444994375405450   0.375000000000000   1.0000000
N2   N   0.055599203030764   0.611139763380392   0.875000000000000   1.0000000
N2   N   0.222221889039318   0.111078029344390   0.875000000000000   1.0000000
N2   N   0.722276447183946   0.611112733747074   0.875000000000000   1.0000000
N2   N   0.555522806971819   0.111078029344390   0.875000000000000   1.0000000
N2   N   0.888888888888886   0.111111111111114   0.875000000000000   1.0000000
B2   B   0.108924724158822   0.053688551294608   0.375000000000000   1.0000000
B2   B   0.623436450232935   0.580206233799129   0.375000000000000   1.0000000
B2   B   0.443866344029541   0.053933266768808   0.375000000000000   1.0000000
B2   B   0.946066733231230   0.556133655970333   0.375000000000000   1.0000000
B2   B   0.778200115650693   0.055766724492005   0.375000000000000   1.0000000
B2   B   0.111100805808333   0.722217069570760   0.875000000000000   1.0000000
B2   B   0.444414098929459   0.722154764742411   0.875000000000000   1.0000000
B2   B   0.277968805782542   0.222328954605608   0.875000000000000   1.0000000
B2   B   0.777671045394297   0.722031194217401   0.875000000000000   1.0000000
B2   B   0.611026815489819   0.222328954605608   0.875000000000000   1.0000000
B2   B   0.944462448360094   0.222258230053589   0.875000000000000   1.0000000
B2   B   0.277501767637998   0.722498232362091   0.375000000000000   1.0000000
B2   B   0.108897084137148   0.221115208735258   0.375000000000000   1.0000000
B2   B   0.443511610464082   0.220356554261427   0.375000000000000   1.0000000
B2   B   0.611899942097936   0.729517611473977   0.375000000000000   1.0000000
B2   B   0.946066733231230   0.723266410593917   0.375000000000000   1.0000000
B2   B   0.778884791264808   0.221115208735258   0.375000000000000   1.0000000
B2   B   0.111124561533917   0.888875438466077   0.875000000000000   1.0000000
B2   B   0.444417543598790   0.888875438466077   0.875000000000000   1.0000000
B2   B   0.277968805782542   0.388973184510270   0.875000000000000   1.0000000
B2   B   0.611030113099528   0.388969886900466   0.875000000000000   1.0000000
B2   B   0.777711732093865   0.888756797521192   0.875000000000000   1.0000000
B2   B   0.944420890452892   0.388939662412636   0.875000000000000   1.0000000
B2   B   0.108924724158825   0.388569506197529   0.375000000000000   1.0000000
B2   B   0.277501767637998   0.888336868609325   0.375000000000000   1.0000000
B2   B   0.611430493802435   0.891075275841137   0.375000000000000   1.0000000
B2   B   0.419793766200884   0.376563549767100   0.375000000000000   1.0000000
B2   B   0.946311448705440   0.891075275841137   0.375000000000000   1.0000000
B2   B   0.784284336042836   0.388100057902200   0.375000000000000   1.0000000
B2   B   0.277845235257596   0.555585901070573   0.875000000000000   1.0000000
B2   B   0.111185438626406   0.055579109547077   0.875000000000000   1.0000000
B2   B   0.611030113099528   0.555393559532397   0.875000000000000   1.0000000
B2   B   0.444414098929459   0.055592667520369   0.875000000000000   1.0000000
B2   B   0.944407332479456   0.555585901070573   0.875000000000000   1.0000000
B2   B   0.111339211217957   0.556011755769293   0.375000000000000   1.0000000
B2   B   0.777741769946224   0.055537551639872   0.875000000000000   1.0000000
B2   B   0.276733589405949   0.053933266768808   0.375000000000000   1.0000000
B2   B   0.443511610464082   0.556488389536002   0.375000000000000   1.0000000
B2   B   0.779643445738500   0.556488389536002   0.375000000000000   1.0000000
B2   B   0.611430493802435   0.053688551294608   0.375000000000000   1.0000000
B2   B   0.444491791395718   0.555508208604297   0.875000000000000   1.0000000
B2   B   0.944233275508031   0.055766724492005   0.375000000000000   1.0000000
B2   B   0.277782930429170   0.722217069570760   0.875000000000000   1.0000000
B2   B   0.111243202478931   0.222288267906122   0.875000000000000   1.0000000
B2   B   0.444491791395718   0.222316916124768   0.875000000000000   1.0000000
B2   B   0.611026815489819   0.722031194217401   0.875000000000000   1.0000000
B2   B   0.944407332479456   0.722154764742411   0.875000000000000   1.0000000
B2   B   0.777711732093865   0.222288267906122   0.875000000000000   1.0000000
B2   B   0.111663131390715   0.722498232362091   0.375000000000000   1.0000000
B2   B   0.443866344029542   0.723266410593917   0.375000000000000   1.0000000
B2   B   0.270482388526048   0.215715663957196   0.375000000000000   1.0000000
B2   B   0.784284336042836   0.729517611473977   0.375000000000000   1.0000000
B2   B   0.611899942097936   0.215715663957196   0.375000000000000   1.0000000
B2   B   0.944233275508031   0.221799884349316   0.375000000000000   1.0000000
B2   B   0.111185438626406   0.388939662412636   0.875000000000000   1.0000000
B2   B   0.277782930429170   0.888899194191669   0.875000000000000   1.0000000
B2   B   0.611060337587294   0.888814561373657   0.875000000000000   1.0000000
B2   B   0.444606440467482   0.388969886900466   0.875000000000000   1.0000000
B2   B   0.944420890452892   0.888814561373657   0.875000000000000   1.0000000
B2   B   0.111339211217957   0.888660788782071   0.375000000000000   1.0000000
B2   B   0.777671045394297   0.388973184510270   0.875000000000000   1.0000000
B2   B   0.443988244230808   0.888660788782071   0.375000000000000   1.0000000
B2   B   0.270482388526048   0.388100057902200   0.375000000000000   1.0000000
B2   B   0.276733589405949   0.556133655970333   0.375000000000000   1.0000000
B2   B   0.623436450232935   0.376563549767100   0.375000000000000   1.0000000
B2   B   0.778884791264808   0.891102915862828   0.375000000000000   1.0000000
B2   B   0.946311448705440   0.388569506197529   0.375000000000000   1.0000000
B2   B   0.111124561533917   0.555582456401198   0.875000000000000   1.0000000
B2   B   0.277845235257596   0.055592667520369   0.875000000000000   1.0000000
B2   B   0.777683083875229   0.555508208604297   0.875000000000000   1.0000000
B2   B   0.611060337587294   0.055579109547077   0.875000000000000   1.0000000
B2   B   0.944462448360094   0.055537551639872   0.875000000000000   1.0000000
B2   B   0.055567018066257   0.111152042123792   0.126513034876502   1.0000000
B2   B   0.555848655090382   0.610853898977480   0.120950977018101   1.0000000
B2   B   0.389144375644334   0.111622084621912   0.123490155116787   1.0000000
B2   B   0.888377915377988   0.610855624355699   0.123490155116787   1.0000000
B2   B   0.722251690724236   0.111152042123792   0.126513034876502   1.0000000
B2   B   0.055364867047828   0.777709012289338   0.623667214737201   1.0000000
B2   B   0.389010811908005   0.777709012289338   0.623667214737201   1.0000000
B2   B   0.222321255551907   0.277827294442618   0.626831326146095   1.0000000
B2   B   0.722172705557260   0.777678744448099   0.626831326146095   1.0000000
B2   B   0.555848655090382   0.278328089446347   0.629049022981924   1.0000000
B2   B   0.888847957876175   0.277748309275790   0.623486965123522   1.0000000
B2   B   0.222222222222221   0.777777777777779   0.127474555997193   1.0000000
B2   B   0.055567018066257   0.277748309275790   0.126513034876502   1.0000000
B2   B   0.389146101022630   0.278328089446347   0.120950977018101   1.0000000
B2   B   0.555686297374595   0.777660883010325   0.124171173314520   1.0000000
B2   B   0.888641252302563   0.777660883010325   0.124171173314520   1.0000000
B2   B   0.722172705557260   0.277827294442618   0.123168673853873   1.0000000
B2   B   0.055511446183823   0.944488553816109   0.623670770136150   1.0000000
B2   B   0.389010811908005   0.944635132952161   0.623667214737201   1.0000000
B2   B   0.222339116989648   0.444313702625472   0.625828826685443   1.0000000
B2   B   0.555555555555557   0.444444444444443   0.621799815857698   1.0000000
B2   B   0.722251690724236   0.944432981933750   0.623486965123522   1.0000000
B2   B   0.888641252302563   0.444313702625472   0.625828826685443   1.0000000
B2   B   0.055511446183823   0.444356225700954   0.126329229863842   1.0000000
B2   B   0.222290987710723   0.944635132952161   0.126332785262683   1.0000000
B2   B   0.555643774299074   0.944488553816109   0.126329229863842   1.0000000
B2   B   0.389146101022630   0.444151344909588   0.120950977018101   1.0000000
B2   B   0.888847957876175   0.944432981933750   0.126513034876502   1.0000000
B2   B   0.721671910553873   0.444151344909588   0.120950977018101   1.0000000
B2   B   0.222290987710723   0.610989188091738   0.623667214737201   1.0000000
B2   B   0.055567018066257   0.111152042123792   0.623486965123522   1.0000000
B2   B   0.555848655090382   0.610853898977480   0.629049022981924   1.0000000
B2   B   0.389144375644334   0.111622084621912   0.626509844883282   1.0000000
B2   B   0.888377915377988   0.610855624355699   0.626509844883282   1.0000000
B2   B   0.055364867047828   0.610989188091738   0.126332785262683   1.0000000
B2   B   0.722251690724236   0.111152042123792   0.623486965123524   1.0000000
B2   B   0.222339116989648   0.111358747697522   0.124171173314520   1.0000000
B2   B   0.389144375644334   0.610855624355699   0.123490155116787   1.0000000
B2   B   0.721671910553873   0.610853898977480   0.120950977018101   1.0000000
B2   B   0.555686297374595   0.111358747697522   0.124171173314520   1.0000000
B2   B   0.389144375644334   0.610855624355699   0.626509844883282   1.0000000
B2   B   0.888888888888886   0.111111111111114   0.127914242191786   1.0000000
B2   B   0.222222222222221   0.777777777777779   0.622525444002790   1.0000000
B2   B   0.055567018066257   0.277748309275790   0.623486965123524   1.0000000
B2   B   0.389146101022630   0.278328089446347   0.629049022981924   1.0000000
B2   B   0.555686297374595   0.777660883010325   0.625828826685443   1.0000000
B2   B   0.888641252302563   0.777660883010325   0.625828826685443   1.0000000
B2   B   0.722172705557252   0.277827294442618   0.626831326146095   1.0000000
B2   B   0.055364867047828   0.777709012289338   0.126332785262683   1.0000000
B2   B   0.389010811908005   0.777709012289338   0.126332785262683   1.0000000
B2   B   0.222321255551907   0.277827294442618   0.123168673853873   1.0000000
B2   B   0.722172705557260   0.777678744448099   0.123168673853873   1.0000000
B2   B   0.555848655090382   0.278328089446347   0.120950977018101   1.0000000
B2   B   0.888847957876175   0.277748309275790   0.126513034876502   1.0000000
B2   B   0.055511446183833   0.444356225700954   0.623670770136150   1.0000000
B2   B   0.222290987710723   0.944635132952161   0.623667214737201   1.0000000
B2   B   0.555643774299074   0.944488553816109   0.623670770136150   1.0000000
B2   B   0.389146101022630   0.444151344909588   0.629049022981924   1.0000000
B2   B   0.888847957876175   0.944432981933750   0.623486965123524   1.0000000
B2   B   0.055511446183833   0.944488553816109   0.126329229863842   1.0000000
B2   B   0.721671910553873   0.444151344909588   0.629049022981924   1.0000000
B2   B   0.389010811908005   0.944635132952161   0.126332785262683   1.0000000
B2   B   0.222339116989647   0.444313702625472   0.124171173314520   1.0000000
B2   B   0.222290987710723   0.610989188091738   0.126332785262683   1.0000000
B2   B   0.555555555555557   0.444444444444443   0.128200184142363   1.0000000
B2   B   0.722251690724236   0.944432981933750   0.126513034876502   1.0000000
B2   B   0.888641252302563   0.444313702625472   0.124171173314520   1.0000000
B2   B   0.055364867047828   0.610989188091738   0.623667214737201   1.0000000
B2   B   0.222339116989648   0.111358747697522   0.625828826685443   1.0000000
B2   B   0.721671910553873   0.610853898977480   0.629049022981924   1.0000000
B2   B   0.555686297374595   0.111358747697522   0.625828826685443   1.0000000
B2   B   0.888888888888886   0.111111111111114   0.622085757808282   1.0000000


