data_1
_audit_creation_method   'vasp2cif'
_cell_length_a    17.52789999999977
_cell_length_b    17.52789999999977
_cell_length_c    15.0
_cell_angle_alpha    90.0
_cell_angle_beta    90.0
_cell_angle_gamma    119.99999999999916

_symmetry_space_group_name_H-M    'P 1'
loop_
_atom_site_label
_atom_site_type_symbol
_atom_site_fract_x
_atom_site_fract_y
_atom_site_fract_z
_atom_site_occupancy
B2   B   0.904611379206041   0.952288238654390   0.111006671483645   1.0000000
B2   B   0.904785683550281   0.095242710221367   0.111032787872195   1.0000000
B2   B   0.904775990693624   0.238112644422027   0.111042455056459   1.0000000
B2   B   0.904594630781116   0.380906710037928   0.110994776326106   1.0000000
B2   B   0.904864246375444   0.523746898683336   0.110990464357415   1.0000000
B2   B   0.904929670554023   0.666741688124513   0.111041440897324   1.0000000
B2   B   0.904878615077293   0.809700338472181   0.111043155214337   1.0000000
B2   B   0.047762962765888   0.952595902237925   0.110998852494857   1.0000000
B2   B   0.047854240743122   0.095477875665947   0.111006233885160   1.0000000
B2   B   0.047916172759796   0.238238209040884   0.110997293367330   1.0000000
B2   B   0.047863089442660   0.380944064270732   0.111013579745919   1.0000000
B2   B   0.047756313976863   0.523739250977891   0.111001289082790   1.0000000
B2   B   0.047697343901832   0.666658161503139   0.111008029182168   1.0000000
B2   B   0.047712121069193   0.809613757554313   0.110990059535019   1.0000000
B2   B   0.190521572471817   0.952455471284807   0.110990043614677   1.0000000
B2   B   0.190799522914915   0.095609514303493   0.111025474313504   1.0000000
B2   B   0.191210273473598   0.238642918808939   0.111000740840118   1.0000000
B2   B   0.191226850718729   0.381133629327945   0.110981836831657   1.0000000
B2   B   0.190789887356668   0.523749229401919   0.111046692927791   1.0000000
B2   B   0.190513063614491   0.666625654830009   0.111055836954014   1.0000000
B2   B   0.190551774723371   0.809563530017742   0.110992724132297   1.0000000
B2   B   0.333438456249709   0.952460662119512   0.111012400913300   1.0000000
B2   B   0.333345219647873   0.095249710740858   0.111038801047465   1.0000000
B2   B   0.333903204131632   0.238313533152940   0.111064271753219   1.0000000
B2   B   0.335223064515675   0.381893312948380   0.111042963317320   1.0000000
B2   B   0.333899609898302   0.524144527036250   0.111067146910732   1.0000000
B2   B   0.333344846423820   0.666651146218192   0.111085510925096   1.0000000
B2   B   0.333440486196655   0.809551888820833   0.111058215012413   1.0000000
B2   B   0.476261773835725   0.952416961879517   0.111002041128978   1.0000000
B2   B   0.476220651620428   0.095828692465443   0.110988751538743   1.0000000
B2   B   0.475732635317636   0.239092461025538   0.111051524303360   1.0000000
B2   B   0.475732516663076   0.665203062712519   0.111049180866134   1.0000000
B2   B   0.476232073104405   0.808965259210087   0.111036842302829   1.0000000
B2   B   0.618991836261236   0.952186780520692   0.111010417024482   1.0000000
B2   B   0.618976418212549   0.095373881356228   0.110992472815673   1.0000000
B2   B   0.618787299692675   0.238463579766663   0.111002517520019   1.0000000
B2   B   0.617962544937792   0.381657498157895   0.111015707948278   1.0000000
B2   B   0.620102963294441   0.524350240590299   0.111117790206925   1.0000000
B2   B   0.617967722555673   0.664893145432038   0.111012811532988   1.0000000
B2   B   0.618812030886569   0.808916726677341   0.110992092685222   1.0000000
B2   B   0.761718779704081   0.952138177267197   0.111000028919714   1.0000000
B2   B   0.761824310199809   0.095200997569138   0.111042011351280   1.0000000
B2   B   0.761697242319328   0.238152464968641   0.111045369987015   1.0000000
B2   B   0.761216401166594   0.380936417721588   0.111004551858301   1.0000000
B2   B   0.762257096963064   0.523903716480979   0.111029719983441   1.0000000
B2   B   0.762265809972616   0.666930586483373   0.111023047268153   1.0000000
B2   B   0.761238754104473   0.808890244369120   0.111008025927234   1.0000000
C2   C   0.475605577162557   0.381907809029152   0.111195908059389   1.0000000
C2   C   0.475588984763033   0.522253974533320   0.111254010570186   1.0000000
C2   C   0.519576074302436   0.474098436598340   0.111310815729167   1.0000000
N2   N   0.952495082003290   0.904934684668805   0.110999744594608   1.0000000
N2   N   0.952473404500419   0.047681933251020   0.110995116467797   1.0000000
N2   N   0.952565582308771   0.190572132498239   0.111008733354109   1.0000000
N2   N   0.952468237852701   0.333369797053395   0.111002000009255   1.0000000
N2   N   0.952487085218513   0.476137626079529   0.110952960647887   1.0000000
N2   N   0.952472823068550   0.619029726997060   0.110996625886388   1.0000000
N2   N   0.952480959916195   0.762011190280415   0.111014129666324   1.0000000
N2   N   0.095304820356611   0.904877434960482   0.110960725301658   1.0000000
N2   N   0.095525878584721   0.047940556408351   0.110990635603749   1.0000000
N2   N   0.095822862501116   0.190903935733942   0.110980628379796   1.0000000
N2   N   0.095832894068445   0.333484752386029   0.110973267987717   1.0000000
N2   N   0.095521806952272   0.476152893800166   0.111000252949084   1.0000000
N2   N   0.095297363513977   0.618992635316762   0.111002746498847   1.0000000
N2   N   0.095310171210737   0.761937037022097   0.110970684821689   1.0000000
N2   N   0.238168870667689   0.904832108222737   0.110970345650994   1.0000000
N2   N   0.238135936261708   0.047725084868527   0.111008028811977   1.0000000
N2   N   0.238674767329124   0.191071557576935   0.111006357967383   1.0000000
N2   N   0.239794281954175   0.334173929988564   0.110959303722146   1.0000000
N2   N   0.238674778991488   0.476165934245174   0.111007717185299   1.0000000
N2   N   0.238130890764092   0.618969077064557   0.111052035402150   1.0000000
N2   N   0.238167761925699   0.761902849053879   0.111016405560355   1.0000000
N2   N   0.381034679056408   0.904802441128811   0.111007037408357   1.0000000
N2   N   0.381008629704451   0.047740610516843   0.110996812364682   1.0000000
N2   N   0.380792244464901   0.190333773782740   0.111034996860631   1.0000000
N2   N   0.382581542993702   0.333505270318263   0.111066539189707   1.0000000
N2   N   0.382572860510078   0.477632256216544   0.111066673221935   1.0000000
N2   N   0.380790789973933   0.619014449265543   0.111050733365002   1.0000000
N2   N   0.381012254843378   0.761832695318210   0.111048345101063   1.0000000
N2   N   0.523751941323659   0.904432532211927   0.110994224363374   1.0000000
N2   N   0.523741455216442   0.047885129589743   0.110957613711524   1.0000000
N2   N   0.523625903431376   0.191468559657835   0.110979695461678   1.0000000
N2   N   0.521818601301174   0.334845388753949   0.111050067049297   1.0000000
N2   N   0.521817926987309   0.615543965603925   0.111057734900923   1.0000000
N2   N   0.523639724740273   0.760730742507320   0.110994909718694   1.0000000
N2   N   0.666447651422325   0.904352374227977   0.110981556608263   1.0000000
N2   N   0.666540427887012   0.047561368297084   0.110996127689195   1.0000000
N2   N   0.666427372487012   0.190666603583951   0.111001202447581   1.0000000
N2   N   0.665607071395995   0.333546997735726   0.110973078934966   1.0000000
N2   N   0.667113094646749   0.476521970713334   0.111000862768230   1.0000000
N2   N   0.667124406586687   0.619183231683900   0.110994177919771   1.0000000
N2   N   0.665625669733118   0.760651840705755   0.110967296397274   1.0000000
N2   N   0.809176390741509   0.904372197666057   0.110981626190600   1.0000000
N2   N   0.809462811528559   0.047523739753633   0.111010413162186   1.0000000
N2   N   0.809453827296050   0.190517979935485   0.111031624019090   1.0000000
N2   N   0.809155339410852   0.333384067530144   0.110999287519227   1.0000000
N2   N   0.809615219847886   0.476170346533898   0.110996180560791   1.0000000
N2   N   0.809733630569148   0.619151569649283   0.111022460525193   1.0000000
N2   N   0.809626347973029   0.762032592236991   0.111014888541758   1.0000000


