data_1
_audit_creation_method   'vasp2cif'
_cell_length_a    14.93631414619966
_cell_length_b    14.936314146199727
_cell_length_c    13.341276283792837
_cell_angle_alpha    90.0
_cell_angle_beta    90.0
_cell_angle_gamma    119.99999999999984

_symmetry_space_group_name_H-M    'P 1'
loop_
_atom_site_label
_atom_site_type_symbol
_atom_site_fract_x
_atom_site_fract_y
_atom_site_fract_z
_atom_site_occupancy
Sb2   Sb   0.555555555555557   0.444444444444443   0.375000000000000   1.0000000
N2   N   0.111102992443382   0.055541559362599   0.125147292101678   1.0000000
N2   N   0.611139848920569   0.555613031174470   0.123798908964372   1.0000000
N2   N   0.444435610403897   0.055545627059393   0.125283398985974   1.0000000
N2   N   0.944454372940608   0.555564389596103   0.125283398985974   1.0000000
N2   N   0.777776968485620   0.055555150909477   0.125039309473791   1.0000000
N2   N   0.111116927898975   0.722225130616152   0.624846678457855   1.0000000
N2   N   0.444435610403897   0.722223316677838   0.624716601014026   1.0000000
N2   N   0.277750047421868   0.222199497791011   0.625024697502170   1.0000000
N2   N   0.777800502208989   0.722249952578133   0.625024697502170   1.0000000
N2   N   0.611116117035812   0.222199497791011   0.625024697502170   1.0000000
N2   N   0.944444849090522   0.222223031514381   0.624960690526209   1.0000000
N2   N   0.277774869383847   0.722225130616152   0.125153321542148   1.0000000
N2   N   0.111095172444414   0.222214252888871   0.125049701952239   1.0000000
N2   N   0.444448396424082   0.222230126181502   0.125072635647013   1.0000000
N2   N   0.611116117035812   0.722249952578133   0.124975302497830   1.0000000
N2   N   0.944454372940608   0.722223316677838   0.125283398985974   1.0000000
N2   N   0.777785747111129   0.222214252888871   0.125049701952239   1.0000000
N2   N   0.111116211968150   0.888883788031851   0.624817680171087   1.0000000
N2   N   0.444434242730371   0.888883788031851   0.624817680171087   1.0000000
N2   N   0.277750047421868   0.388883882964187   0.625024697502170   1.0000000
N2   N   0.611139848920569   0.388860151079429   0.626201091035631   1.0000000
N2   N   0.777785747111129   0.888904827555586   0.624950298047761   1.0000000
N2   N   0.944458440637399   0.388894766414111   0.624852707898324   1.0000000
N2   N   0.111102992443382   0.388894766414111   0.125147292101678   1.0000000
N2   N   0.277774869383847   0.888883072101023   0.125153321542148   1.0000000
N2   N   0.611105233585888   0.888897007556614   0.125147292101678   1.0000000
N2   N   0.444386968825531   0.388860151079429   0.123798908964372   1.0000000
N2   N   0.944458440637399   0.888897007556614   0.125147292101678   1.0000000
N2   N   0.777800502208989   0.388883882964187   0.124975302497830   1.0000000
N2   N   0.277776683322160   0.555564389596103   0.624716601014026   1.0000000
N2   N   0.111102992443382   0.055541559362599   0.624852707898324   1.0000000
N2   N   0.611139848920569   0.555613031174470   0.626201091035631   1.0000000
N2   N   0.444435610403897   0.055545627059393   0.624716601014026   1.0000000
N2   N   0.944454372940608   0.555564389596103   0.624716601014026   1.0000000
N2   N   0.111116211968149   0.555565757269626   0.125182319828915   1.0000000
N2   N   0.777776968485620   0.055555150909477   0.624960690526209   1.0000000
N2   N   0.277776683322160   0.055545627059393   0.125283398985974   1.0000000
N2   N   0.444448396424082   0.555551603575917   0.125072635647013   1.0000000
N2   N   0.777769873818500   0.555551603575917   0.125072635647013   1.0000000
N2   N   0.611105233585888   0.055541559362599   0.125147292101678   1.0000000
N2   N   0.444448396424082   0.555551603575917   0.624927364352985   1.0000000
N2   N   0.944444849090522   0.055555150909477   0.125039309473791   1.0000000
N2   N   0.277774869383847   0.722225130616152   0.624846678457855   1.0000000
N2   N   0.111095172444414   0.222214252888871   0.624950298047761   1.0000000
N2   N   0.444448396424082   0.222230126181502   0.624927364352985   1.0000000
N2   N   0.611116117035812   0.722249952578133   0.625024697502170   1.0000000
N2   N   0.944454372940608   0.722223316677838   0.624716601014026   1.0000000
N2   N   0.777785747111129   0.222214252888871   0.624950298047761   1.0000000
N2   N   0.111116927898975   0.722225130616152   0.125153321542148   1.0000000
N2   N   0.444435610403897   0.722223316677838   0.125283398985974   1.0000000
N2   N   0.277750047421868   0.222199497791011   0.124975302497830   1.0000000
N2   N   0.777800502208989   0.722249952578133   0.124975302497830   1.0000000
N2   N   0.611116117035812   0.222199497791011   0.124975302497830   1.0000000
N2   N   0.944444849090522   0.222223031514381   0.125039309473791   1.0000000
N2   N   0.111102992443382   0.388894766414111   0.624852707898324   1.0000000
N2   N   0.277774869383847   0.888883072101023   0.624846678457855   1.0000000
N2   N   0.611105233585888   0.888897007556614   0.624852707898324   1.0000000
N2   N   0.444386968825531   0.388860151079429   0.626201091035631   1.0000000
N2   N   0.944458440637399   0.888897007556614   0.624852707898324   1.0000000
N2   N   0.111116211968149   0.888883788031851   0.125182319828915   1.0000000
N2   N   0.777800502208989   0.388883882964187   0.625024697502170   1.0000000
N2   N   0.444434242730371   0.888883788031851   0.125182319828915   1.0000000
N2   N   0.277750047421868   0.388883882964187   0.124975302497830   1.0000000
N2   N   0.277776683322160   0.555564389596103   0.125283398985974   1.0000000
N2   N   0.611139848920569   0.388860151079429   0.123798908964372   1.0000000
N2   N   0.777785747111129   0.888904827555586   0.125049701952239   1.0000000
N2   N   0.944458440637399   0.388894766414111   0.125147292101678   1.0000000
N2   N   0.111116211968149   0.555565757269626   0.624817680171087   1.0000000
N2   N   0.277776683322160   0.055545627059393   0.624716601014026   1.0000000
N2   N   0.777769873818500   0.555551603575917   0.624927364352985   1.0000000
N2   N   0.611105233585888   0.055541559362599   0.624852707898324   1.0000000
N2   N   0.944444849090522   0.055555150909477   0.624960690526209   1.0000000
N2   N   0.054053091607539   0.110137574436357   0.375000000000000   1.0000000
N2   N   0.556036635477982   0.623708340095865   0.375000000000000   1.0000000
N2   N   0.387331444029689   0.107996221392722   0.375000000000000   1.0000000
N2   N   0.892003778607278   0.612668555970309   0.375000000000000   1.0000000
N2   N   0.722751149495480   0.110137574436357   0.375000000000000   1.0000000
N2   N   0.055551354209914   0.777776847940470   0.875000000000000   1.0000000
N2   N   0.388892160397222   0.777776847940470   0.875000000000000   1.0000000
N2   N   0.222223211424391   0.277778272378864   0.875000000000000   1.0000000
N2   N   0.722221727621137   0.777776788575608   0.875000000000000   1.0000000
N2   N   0.555553968055401   0.277777056083845   0.875000000000000   1.0000000
N2   N   0.888889247639137   0.277778734179191   0.875000000000000   1.0000000
N2   N   0.222222222222221   0.777777777777779   0.375000000000000   1.0000000
N2   N   0.054053091607539   0.277248850504516   0.375000000000000   1.0000000
N2   N   0.376291659904132   0.265661628715451   0.375000000000000   1.0000000
N2   N   0.555064504246247   0.782853703923690   0.375000000000000   1.0000000
N2   N   0.894455866344107   0.782853703923691   0.375000000000000   1.0000000
N2   N   0.724608813362122   0.275391186637877   0.375000000000000   1.0000000
N2   N   0.055555246948905   0.944444753051095   0.875000000000000   1.0000000
N2   N   0.388892160397222   0.944448645790085   0.875000000000000   1.0000000
N2   N   0.222221868610112   0.444442605994159   0.875000000000000   1.0000000
N2   N   0.555555555555557   0.444444444444443   0.875000000000000   1.0000000
N2   N   0.722221265820807   0.944443846793279   0.875000000000000   1.0000000
N2   N   0.888887404050711   0.444442605994159   0.875000000000000   1.0000000
N2   N   0.055805306034790   0.444943945402908   0.375000000000000   1.0000000
N2   N   0.221738565109276   0.943155717294711   0.375000000000000   1.0000000
N2   N   0.555056054597093   0.944194693965209   0.375000000000000   1.0000000
N2   N   0.376291659904132   0.443963364522019   0.375000000000000   1.0000000
N2   N   0.889862425563640   0.945946908392461   0.375000000000000   1.0000000
N2   N   0.734338371284549   0.443963364522019   0.375000000000000   1.0000000
N2   N   0.222223152059529   0.611107839602778   0.875000000000000   1.0000000
N2   N   0.055556153206720   0.111110752360863   0.875000000000000   1.0000000
N2   N   0.555553968055401   0.611110245304893   0.875000000000000   1.0000000
N2   N   0.388891459466450   0.111116252266243   0.875000000000000   1.0000000
N2   N   0.888883747733757   0.611108540533552   0.875000000000000   1.0000000
N2   N   0.056844282705291   0.611916181147900   0.375000000000000   1.0000000
N2   N   0.722221265820807   0.111110752360863   0.875000000000000   1.0000000
N2   N   0.217146296076308   0.105544133655892   0.375000000000000   1.0000000
N2   N   0.387331444029689   0.612668555970309   0.375000000000000   1.0000000
N2   N   0.734338371284549   0.623708340095865   0.375000000000000   1.0000000
N2   N   0.555064504246247   0.105544133655893   0.375000000000000   1.0000000
N2   N   0.388891459466450   0.611108540533552   0.875000000000000   1.0000000
N2   N   0.888888888888886   0.111111111111114   0.375000000000000   1.0000000
N2   N   0.222222222222221   0.777777777777779   0.875000000000000   1.0000000
N2   N   0.055556153206720   0.277778734179191   0.875000000000000   1.0000000
N2   N   0.388889754695109   0.277777056083845   0.875000000000000   1.0000000
N2   N   0.555557394005843   0.777778131389888   0.875000000000000   1.0000000
N2   N   0.888887404050711   0.777778131389888   0.875000000000000   1.0000000
N2   N   0.722221727621137   0.277778272378864   0.875000000000000   1.0000000
N2   N   0.056844282705291   0.778261434890725   0.375000000000000   1.0000000
N2   N   0.388083818852099   0.778261434890725   0.375000000000000   1.0000000
N2   N   0.217449039942420   0.275391186637877   0.375000000000000   1.0000000
N2   N   0.724608813362122   0.782550960057581   0.375000000000000   1.0000000
N2   N   0.556036635477982   0.265661628715451   0.375000000000000   1.0000000
N2   N   0.889862425563640   0.277248850504516   0.375000000000000   1.0000000
N2   N   0.055555246948905   0.444443827231137   0.875000000000000   1.0000000
N2   N   0.222223152059529   0.944448645790085   0.875000000000000   1.0000000
N2   N   0.555556172768860   0.944444753051095   0.875000000000000   1.0000000
N2   N   0.388889754695109   0.444446031944600   0.875000000000000   1.0000000
N2   N   0.888889247639137   0.944443846793279   0.875000000000000   1.0000000
N2   N   0.055805306034790   0.944194693965209   0.375000000000000   1.0000000
N2   N   0.722222943916154   0.444446031944600   0.875000000000000   1.0000000
N2   N   0.388083818852099   0.943155717294711   0.375000000000000   1.0000000
N2   N   0.217146296076308   0.444935495753751   0.375000000000000   1.0000000
N2   N   0.221738565109275   0.611916181147900   0.375000000000000   1.0000000
N2   N   0.722751149495480   0.945946908392461   0.375000000000000   1.0000000
N2   N   0.894455866344107   0.444935495753752   0.375000000000000   1.0000000
N2   N   0.055551354209914   0.611107839602779   0.875000000000000   1.0000000
N2   N   0.222221868610112   0.111112595949289   0.875000000000000   1.0000000
N2   N   0.722222943916154   0.611110245304893   0.875000000000000   1.0000000
N2   N   0.555557394005843   0.111112595949289   0.875000000000000   1.0000000
N2   N   0.888888888888886   0.111111111111114   0.875000000000000   1.0000000
B2   B   0.107966573346030   0.053231779038258   0.375000000000000   1.0000000
B2   B   0.629127346734755   0.591588026802843   0.375000000000000   1.0000000
B2   B   0.443907051902142   0.052933688925597   0.375000000000000   1.0000000
B2   B   0.947066311074403   0.556092948097858   0.375000000000000   1.0000000
B2   B   0.778562723288986   0.055948028311161   0.375000000000000   1.0000000
B2   B   0.111115309174212   0.722224321253771   0.875000000000000   1.0000000
B2   B   0.444446937283314   0.722245601219092   0.875000000000000   1.0000000
B2   B   0.277729522468513   0.222190808554549   0.875000000000000   1.0000000
B2   B   0.777809191445452   0.722270477531486   0.875000000000000   1.0000000
B2   B   0.611127952752707   0.222190808554549   0.875000000000000   1.0000000
B2   B   0.944439524636330   0.222212382605994   0.875000000000000   1.0000000
B2   B   0.277383086085808   0.722616913914193   0.375000000000000   1.0000000
B2   B   0.107518907287548   0.220426120310439   0.375000000000000   1.0000000
B2   B   0.441883396174272   0.217100125681880   0.375000000000000   1.0000000
B2   B   0.612986907000786   0.732781805141732   0.375000000000000   1.0000000
B2   B   0.947066311074403   0.724306696309883   0.375000000000000   1.0000000
B2   B   0.779573879689559   0.220426120310439   0.375000000000000   1.0000000
B2   B   0.111107383001583   0.888892616998416   0.875000000000000   1.0000000
B2   B   0.444451900663505   0.888892616998416   0.875000000000000   1.0000000
B2   B   0.277729522468513   0.388872047247297   0.875000000000000   1.0000000
B2   B   0.611129860928949   0.388870139071050   0.875000000000000   1.0000000
B2   B   0.777795539572141   0.888924412477611   0.875000000000000   1.0000000
B2   B   0.944457192219530   0.388876382544080   0.875000000000000   1.0000000
B2   B   0.107966573346030   0.388068127641100   0.375000000000000   1.0000000
B2   B   0.277383086085808   0.888099505504945   0.375000000000000   1.0000000
B2   B   0.611931872358900   0.892033426653969   0.375000000000000   1.0000000
B2   B   0.408411973197157   0.370872653265242   0.375000000000000   1.0000000
B2   B   0.946768220961743   0.892033426653969   0.375000000000000   1.0000000
B2   B   0.786461564807623   0.387013092999215   0.375000000000000   1.0000000
B2   B   0.277754398780907   0.555553062716687   0.875000000000000   1.0000000
B2   B   0.111085856991222   0.055542807780471   0.875000000000000   1.0000000
B2   B   0.611129860928949   0.555593055191229   0.875000000000000   1.0000000
B2   B   0.444446937283314   0.055534669397558   0.875000000000000   1.0000000
B2   B   0.944465330602441   0.555553062716687   0.875000000000000   1.0000000
B2   B   0.111258028760161   0.555849390853648   0.375000000000000   1.0000000
B2   B   0.777787617394007   0.055560475363671   0.875000000000000   1.0000000
B2   B   0.275693303690118   0.052933688925597   0.375000000000000   1.0000000
B2   B   0.441883396174272   0.558116603825725   0.375000000000000   1.0000000
B2   B   0.782899874318120   0.558116603825725   0.375000000000000   1.0000000
B2   B   0.611931872358900   0.053231779038258   0.375000000000000   1.0000000
B2   B   0.444427168014443   0.555572831985555   0.875000000000000   1.0000000
B2   B   0.944051971688842   0.055948028311161   0.375000000000000   1.0000000
B2   B   0.277775678746230   0.722224321253771   0.875000000000000   1.0000000
B2   B   0.111075587522388   0.222204460427858   0.875000000000000   1.0000000
B2   B   0.444427168014443   0.222187669362225   0.875000000000000   1.0000000
B2   B   0.611127952752707   0.722270477531486   0.875000000000000   1.0000000
B2   B   0.944465330602441   0.722245601219092   0.875000000000000   1.0000000
B2   B   0.777795539572141   0.222204460427858   0.875000000000000   1.0000000
B2   B   0.111900494495056   0.722616913914193   0.375000000000000   1.0000000
B2   B   0.443907051902142   0.724306696309883   0.375000000000000   1.0000000
B2   B   0.267218194858267   0.213538435192380   0.375000000000000   1.0000000
B2   B   0.786461564807622   0.732781805141732   0.375000000000000   1.0000000
B2   B   0.612986907000785   0.213538435192380   0.375000000000000   1.0000000
B2   B   0.944051971688842   0.221437276711014   0.375000000000000   1.0000000
B2   B   0.111085856991222   0.388876382544080   0.875000000000000   1.0000000
B2   B   0.277775678746230   0.888884690825789   0.875000000000000   1.0000000
B2   B   0.611123617455922   0.888914143008776   0.875000000000000   1.0000000
B2   B   0.444406944808769   0.388870139071050   0.875000000000000   1.0000000
B2   B   0.944457192219530   0.888914143008776   0.875000000000000   1.0000000
B2   B   0.111258028760161   0.888741971239841   0.375000000000000   1.0000000
B2   B   0.777809191445452   0.388872047247297   0.875000000000000   1.0000000
B2   B   0.444150609146350   0.888741971239841   0.375000000000000   1.0000000
B2   B   0.267218194858267   0.387013092999215   0.375000000000000   1.0000000
B2   B   0.275693303690118   0.556092948097858   0.375000000000000   1.0000000
B2   B   0.629127346734755   0.370872653265243   0.375000000000000   1.0000000
B2   B   0.779573879689559   0.892481092712452   0.375000000000000   1.0000000
B2   B   0.946768220961742   0.388068127641100   0.375000000000000   1.0000000
B2   B   0.111107383001583   0.555548099336498   0.875000000000000   1.0000000
B2   B   0.277754398780908   0.055534669397558   0.875000000000000   1.0000000
B2   B   0.777812330637777   0.555572831985555   0.875000000000000   1.0000000
B2   B   0.611123617455922   0.055542807780471   0.875000000000000   1.0000000
B2   B   0.944439524636330   0.055560475363671   0.875000000000000   1.0000000
B2   B   0.055503862928329   0.111076927513313   0.124888833380620   1.0000000
B2   B   0.555540521511024   0.611290465724007   0.124012766183264   1.0000000
B2   B   0.388804947975316   0.110943229283978   0.124938594909423   1.0000000
B2   B   0.889056770716025   0.611195052024686   0.124938594909423   1.0000000
B2   B   0.722239731251651   0.111076927513313   0.124888833380620   1.0000000
B2   B   0.055625027750494   0.777806942254654   0.625018632467088   1.0000000
B2   B   0.388848581170824   0.777806942254654   0.625018632467088   1.0000000
B2   B   0.222077665895302   0.277705499614318   0.625341910763808   1.0000000
B2   B   0.722294500385683   0.777922334104700   0.625341910763808   1.0000000
B2   B   0.555540521511024   0.277583389120352   0.625987233816734   1.0000000
B2   B   0.888923072486685   0.277760268748351   0.625111166619383   1.0000000
B2   B   0.222222222222221   0.777777777777779   0.124929731083222   1.0000000
B2   B   0.055503862928329   0.277760268748351   0.124888833380620   1.0000000
B2   B   0.388709534275993   0.277583389120352   0.124012766183264   1.0000000
B2   B   0.555538979534324   0.777880720817407   0.124887048594453   1.0000000
B2   B   0.889008407949749   0.777880720817407   0.124887048594453   1.0000000
B2   B   0.722294500385683   0.277705499614318   0.124658089236191   1.0000000
B2   B   0.055564003900807   0.944435996099195   0.625036007340029   1.0000000
B2   B   0.388848581170824   0.944374972249504   0.625018632467088   1.0000000
B2   B   0.222119279182594   0.444461020465679   0.625112951405547   1.0000000
B2   B   0.555555555555557   0.444444444444443   0.627161355020442   1.0000000
B2   B   0.722239731251651   0.944496137071673   0.625111166619383   1.0000000
B2   B   0.889008407949749   0.444461020465679   0.625112951405547   1.0000000
B2   B   0.055564003900807   0.444461341134942   0.124963992659971   1.0000000
B2   B   0.222193057745347   0.944374972249504   0.124981367532909   1.0000000
B2   B   0.555538658865054   0.944435996099195   0.124963992659971   1.0000000
B2   B   0.388709534275993   0.444459478488977   0.124012766183264   1.0000000
B2   B   0.888923072486685   0.944496137071673   0.124888833380620   1.0000000
B2   B   0.722416610879649   0.444459478488977   0.124012766183264   1.0000000
B2   B   0.222193057745347   0.611151418829175   0.625018632467088   1.0000000
B2   B   0.055503862928329   0.111076927513313   0.625111166619383   1.0000000
B2   B   0.555540521511024   0.611290465724007   0.625987233816734   1.0000000
B2   B   0.388804947975316   0.110943229283978   0.625061405090577   1.0000000
B2   B   0.889056770716025   0.611195052024686   0.625061405090577   1.0000000
B2   B   0.055625027750494   0.611151418829175   0.124981367532909   1.0000000
B2   B   0.722239731251651   0.111076927513313   0.625111166619383   1.0000000
B2   B   0.222119279182594   0.110991592050251   0.124887048594453   1.0000000
B2   B   0.388804947975316   0.611195052024686   0.124938594909423   1.0000000
B2   B   0.722416610879649   0.611290465724006   0.124012766183264   1.0000000
B2   B   0.555538979534324   0.110991592050251   0.124887048594453   1.0000000
B2   B   0.388804947975316   0.611195052024686   0.625061405090577   1.0000000
B2   B   0.888888888888886   0.111111111111114   0.124872256320463   1.0000000
B2   B   0.222222222222221   0.777777777777779   0.625070268916779   1.0000000
B2   B   0.055503862928329   0.277760268748351   0.625111166619383   1.0000000
B2   B   0.388709534275993   0.277583389120352   0.625987233816734   1.0000000
B2   B   0.555538979534324   0.777880720817407   0.625112951405547   1.0000000
B2   B   0.889008407949749   0.777880720817407   0.625112951405547   1.0000000
B2   B   0.722294500385683   0.277705499614318   0.625341910763808   1.0000000
B2   B   0.055625027750494   0.777806942254654   0.124981367532909   1.0000000
B2   B   0.388848581170824   0.777806942254654   0.124981367532909   1.0000000
B2   B   0.222077665895302   0.277705499614318   0.124658089236191   1.0000000
B2   B   0.722294500385683   0.777922334104700   0.124658089236191   1.0000000
B2   B   0.555540521511024   0.277583389120352   0.124012766183264   1.0000000
B2   B   0.888923072486685   0.277760268748351   0.124888833380620   1.0000000
B2   B   0.055564003900807   0.444461341134942   0.625036007340029   1.0000000
B2   B   0.222193057745347   0.944374972249504   0.625018632467088   1.0000000
B2   B   0.555538658865054   0.944435996099195   0.625036007340029   1.0000000
B2   B   0.388709534275993   0.444459478488977   0.625987233816734   1.0000000
B2   B   0.888923072486685   0.944496137071673   0.625111166619383   1.0000000
B2   B   0.055564003900807   0.944435996099195   0.124963992659971   1.0000000
B2   B   0.722416610879649   0.444459478488977   0.625987233816734   1.0000000
B2   B   0.388848581170824   0.944374972249504   0.124981367532909   1.0000000
B2   B   0.222119279182594   0.444461020465679   0.124887048594453   1.0000000
B2   B   0.222193057745347   0.611151418829175   0.124981367532909   1.0000000
B2   B   0.555555555555557   0.444444444444443   0.122838644979558   1.0000000
B2   B   0.722239731251651   0.944496137071673   0.124888833380620   1.0000000
B2   B   0.889008407949749   0.444461020465679   0.124887048594453   1.0000000
B2   B   0.055625027750494   0.611151418829175   0.625018632467088   1.0000000
B2   B   0.222119279182594   0.110991592050251   0.625112951405547   1.0000000
B2   B   0.722416610879649   0.611290465724006   0.625987233816734   1.0000000
B2   B   0.555538979534324   0.110991592050251   0.625112951405547   1.0000000
B2   B   0.888888888888886   0.111111111111114   0.625127743679536   1.0000000


