data_1
_audit_creation_method   'vasp2cif'
_cell_length_a    14.93631414619966
_cell_length_b    14.936314146199727
_cell_length_c    13.341276283792837
_cell_angle_alpha    90.0
_cell_angle_beta    90.0
_cell_angle_gamma    119.99999999999984

_symmetry_space_group_name_H-M    'P 1'
loop_
_atom_site_label
_atom_site_type_symbol
_atom_site_fract_x
_atom_site_fract_y
_atom_site_fract_z
_atom_site_occupancy
Ge2   Ge   0.494733365978531   0.414033349655927   0.375000000000000   1.0000000
N2   N   0.111171074791682   0.055580832446825   0.124955235107248   1.0000000
N2   N   0.611312159931579   0.555782061921403   0.123041180644203   1.0000000
N2   N   0.444578750394730   0.055623043873541   0.124837739661651   1.0000000
N2   N   0.944525083672187   0.555588862168123   0.124835879873360   1.0000000
N2   N   0.777912985562959   0.055623159448139   0.124874799697376   1.0000000
N2   N   0.111206416637001   0.722269874985169   0.625047009979843   1.0000000
N2   N   0.444578750394730   0.722289039854528   0.625162260338354   1.0000000
N2   N   0.277756095365556   0.222206036500948   0.625565484823984   1.0000000
N2   N   0.777885412975341   0.722322602125897   0.625695409909192   1.0000000
N2   N   0.611250138999644   0.222244757364446   0.625708024117738   1.0000000
N2   N   0.944535332887134   0.222260986632876   0.625107465388051   1.0000000
N2   N   0.277898777704895   0.722280466618147   0.124935277217594   1.0000000
N2   N   0.111136910902952   0.222235122118141   0.124923661786547   1.0000000
N2   N   0.444560259934035   0.222289374920183   0.124289744279264   1.0000000
N2   N   0.611250138999644   0.722338714968521   0.124291975882266   1.0000000
N2   N   0.944525083672187   0.722269554837387   0.124835879873360   1.0000000
N2   N   0.777907924501557   0.222250951961318   0.124785445191386   1.0000000
N2   N   0.111206585322323   0.888940574817409   0.625072656919507   1.0000000
N2   N   0.444584965931897   0.888959149632614   0.625100842628107   1.0000000
N2   N   0.277756095365556   0.388883392197945   0.625565484823984   1.0000000
N2   N   0.611312159931579   0.388863431343510   0.626958819355799   1.0000000
N2   N   0.777907924501557   0.888990305873576   0.625214554808611   1.0000000
N2   N   0.944538444309129   0.388924846936429   0.625072710161721   1.0000000
N2   N   0.111171074791682   0.388923575678186   0.124955235107248   1.0000000
N2   N   0.277898777704895   0.888951644420077   0.124935277217594   1.0000000
N2   N   0.611253673094344   0.888976314858017   0.124849842121508   1.0000000
N2   N   0.444194249902637   0.388763791617985   0.122571894025781   1.0000000
N2   N   0.944538444309129   0.888946930706027   0.124927289838287   1.0000000
N2   N   0.777885412975341   0.388896144182768   0.124304590090809   1.0000000
N2   N   0.277886150273944   0.555603627798614   0.625115821447536   1.0000000
N2   N   0.111171074791682   0.055580832446825   0.625044764892732   1.0000000
N2   N   0.611312159931579   0.555782061921403   0.626958819355799   1.0000000
N2   N   0.444578750394730   0.055623043873541   0.625162260338354   1.0000000
N2   N   0.944525083672187   0.555588862168123   0.625164120126640   1.0000000
N2   N   0.111206585322323   0.555599343838235   0.124927343080484   1.0000000
N2   N   0.777912985562959   0.055623159448139   0.625125200302626   1.0000000
N2   N   0.277886150273944   0.055615855808675   0.124884178552466   1.0000000
N2   N   0.444560259934035   0.555604218347190   0.124289744279264   1.0000000
N2   N   0.777865869786563   0.555599601559945   0.124077033586460   1.0000000
N2   N   0.611253673094344   0.055610691569631   0.124849842121508   1.0000000
N2   N   0.444560259934035   0.555604218347190   0.625710255720735   1.0000000
N2   N   0.944535332887134   0.055607679587594   0.124892534611950   1.0000000
N2   N   0.277898777704895   0.722280466618147   0.625064722782393   1.0000000
N2   N   0.111136910902952   0.222235122118141   0.625076338213449   1.0000000
N2   N   0.444560259934035   0.222289374920183   0.625710255720735   1.0000000
N2   N   0.611250138999644   0.722338714968521   0.625708024117738   1.0000000
N2   N   0.944525083672187   0.722269554837387   0.625164120126640   1.0000000
N2   N   0.777907924501557   0.222250951961318   0.625214554808611   1.0000000
N2   N   0.111206416637001   0.722269874985169   0.124952990020150   1.0000000
N2   N   0.444578750394730   0.722289039854528   0.124837739661651   1.0000000
N2   N   0.277756095365556   0.222206036500948   0.124434515176020   1.0000000
N2   N   0.777885412975341   0.722322602125897   0.124304590090809   1.0000000
N2   N   0.611250138999644   0.222244757364446   0.124291975882266   1.0000000
N2   N   0.944535332887134   0.222260986632876   0.124892534611950   1.0000000
N2   N   0.111171074791682   0.388923575678186   0.625044764892732   1.0000000
N2   N   0.277898777704895   0.888951644420077   0.625064722782393   1.0000000
N2   N   0.611253673094344   0.888976314858017   0.625150157878484   1.0000000
N2   N   0.444194249902637   0.388763791617985   0.627428105974208   1.0000000
N2   N   0.944538444309129   0.888946930706027   0.625072710161721   1.0000000
N2   N   0.111206585322323   0.888940574817408   0.124927343080484   1.0000000
N2   N   0.777885412975341   0.388896144182768   0.625695409909192   1.0000000
N2   N   0.444584965931897   0.888959149632614   0.124899157371891   1.0000000
N2   N   0.277756095365556   0.388883392197945   0.124434515176020   1.0000000
N2   N   0.277886150273944   0.555603627798614   0.124884178552466   1.0000000
N2   N   0.611312159931579   0.388863431343510   0.123041180644203   1.0000000
N2   N   0.777907924501557   0.888990305873576   0.124785445191386   1.0000000
N2   N   0.944538444309129   0.388924846936429   0.124927289838287   1.0000000
N2   N   0.111206585322323   0.555599343838235   0.625072656919507   1.0000000
N2   N   0.277886150273944   0.055615855808675   0.625115821447536   1.0000000
N2   N   0.777865869786563   0.555599601559945   0.625922966413531   1.0000000
N2   N   0.611253673094344   0.055610691569631   0.625150157878484   1.0000000
N2   N   0.944535332887134   0.055607679587594   0.625107465388051   1.0000000
N2   N   0.056984300953530   0.112009064275183   0.375000000000000   1.0000000
N2   N   0.553862861994606   0.618236860161476   0.375000000000000   1.0000000
N2   N   0.386465917259432   0.104944670074410   0.375000000000000   1.0000000
N2   N   0.885133856459252   0.609233594896282   0.375000000000000   1.0000000
N2   N   0.722465210522117   0.110519768170153   0.375000000000000   1.0000000
N2   N   0.055638140563047   0.777818120219456   0.875000000000000   1.0000000
N2   N   0.388952702986547   0.777817399530404   0.875000000000000   1.0000000
N2   N   0.222302769881777   0.277818051607560   0.875000000000000   1.0000000
N2   N   0.722292700261845   0.777809313915460   0.875000000000000   1.0000000
N2   N   0.555615952973024   0.277799191946048   0.875000000000000   1.0000000
N2   N   0.888962437938027   0.277819172897674   0.875000000000000   1.0000000
N2   N   0.219161287050738   0.776247310192045   0.375000000000000   1.0000000
N2   N   0.056984300953530   0.278308570011682   0.375000000000000   1.0000000
N2   N   0.390977342876297   0.271911149482758   0.375000000000000   1.0000000
N2   N   0.554402970281119   0.780703661411963   0.375000000000000   1.0000000
N2   N   0.886870443320022   0.777012848057246   0.375000000000000   1.0000000
N2   N   0.722001428083555   0.275902599672095   0.375000000000000   1.0000000
N2   N   0.055627685794883   0.944476374438792   0.875000000000000   1.0000000
N2   N   0.388952702986547   0.944468636789471   0.875000000000000   1.0000000
N2   N   0.222292136220169   0.444489055127845   0.875000000000000   1.0000000
N2   N   0.555631696093897   0.444482514713616   0.875000000000000   1.0000000
N2   N   0.722287357945391   0.944475165683171   0.875000000000000   1.0000000
N2   N   0.888973238614685   0.444490923295678   0.875000000000000   1.0000000
N2   N   0.054555028974672   0.444052409598807   0.375000000000000   1.0000000
N2   N   0.219518692500647   0.941888439984817   0.375000000000000   1.0000000
N2   N   0.554496540788135   0.943914937060747   0.375000000000000   1.0000000
N2   N   0.390977342876296   0.452399526726883   0.375000000000000   1.0000000
N2   N   0.889301019347887   0.945229280466217   0.375000000000000   1.0000000
N2   N   0.718692003834889   0.441998692102460   0.375000000000000   1.0000000
N2   N   0.222286938137611   0.611152325826024   0.875000000000000   1.0000000
N2   N   0.055631186779085   0.111146796320950   0.875000000000000   1.0000000
N2   N   0.555615952973024   0.611150094360307   0.875000000000000   1.0000000
N2   N   0.388948794772510   0.111123245416131   0.875000000000000   1.0000000
N2   N   0.888991746453473   0.611162539893407   0.875000000000000   1.0000000
N2   N   0.052492232929865   0.609815250951717   0.375000000000000   1.0000000
N2   N   0.722287357945391   0.111145525595555   0.875000000000000   1.0000000
N2   N   0.222465197892584   0.110319781487963   0.375000000000000   1.0000000
N2   N   0.386465917259432   0.614854580518360   0.375000000000000   1.0000000
N2   N   0.718692003834889   0.610026645065768   0.375000000000000   1.0000000
N2   N   0.554402970281119   0.107032642202493   0.375000000000000   1.0000000
N2   N   0.388948794772510   0.611158882689733   0.875000000000000   1.0000000
N2   N   0.889914501541898   0.111623917437615   0.375000000000000   1.0000000
N2   N   0.222292700691512   0.777813017012419   0.875000000000000   1.0000000
N2   N   0.055631186779085   0.277817723791473   0.875000000000000   1.0000000
N2   N   0.388961783376150   0.277794231086970   0.875000000000000   1.0000000
N2   N   0.555616344885757   0.777813041999455   0.875000000000000   1.0000000
N2   N   0.888973238614685   0.777815648652347   0.875000000000000   1.0000000
N2   N   0.722292700261845   0.277816719679725   0.875000000000000   1.0000000
N2   N   0.052492232929865   0.776010315311482   0.375000000000000   1.0000000
N2   N   0.386493939641735   0.778143193112676   0.375000000000000   1.0000000
N2   N   0.225437441456950   0.279385387395139   0.375000000000000   1.0000000
N2   N   0.722001428083555   0.779432161744804   0.375000000000000   1.0000000
N2   N   0.553862861994606   0.268959335166459   0.375000000000000   1.0000000
N2   N   0.889301019347887   0.277405072215001   0.375000000000000   1.0000000
N2   N   0.055627685794883   0.444484644689409   0.875000000000000   1.0000000
N2   N   0.222286938137612   0.944467945644924   0.875000000000000   1.0000000
N2   N   0.555618380109093   0.944475856721208   0.875000000000000   1.0000000
N2   N   0.388961783376150   0.444500885622514   0.875000000000000   1.0000000
N2   N   0.888962437938027   0.944476598373691   0.875000000000000   1.0000000
N2   N   0.054555028974672   0.943835952709187   0.375000000000000   1.0000000
N2   N   0.722316723484236   0.444497240752196   0.875000000000000   1.0000000
N2   N   0.386493939641735   0.941684079862390   0.375000000000000   1.0000000
N2   N   0.222465197892583   0.445478749737957   0.375000000000000   1.0000000
N2   N   0.219518692500647   0.610963585849172   0.375000000000000   1.0000000
N2   N   0.722465210522117   0.945278775685292   0.375000000000000   1.0000000
N2   N   0.886870443320022   0.443190928596106   0.375000000000000   1.0000000
N2   N   0.055638140563047   0.611153353676920   0.875000000000000   1.0000000
N2   N   0.222292136220169   0.111136414425657   0.875000000000000   1.0000000
N2   N   0.722316723484236   0.611152816065360   0.875000000000000   1.0000000
N2   N   0.555616344885757   0.111136636219649   0.875000000000000   1.0000000
N2   N   0.888961169592917   0.111147251463135   0.875000000000000   1.0000000
B2   B   0.111725993133863   0.055562965681918   0.375000000000000   1.0000000
B2   B   0.607215518185504   0.561129436250731   0.375000000000000   1.0000000
B2   B   0.443060065734926   0.051871844011407   0.375000000000000   1.0000000
B2   B   0.941221401355575   0.554193343858320   0.375000000000000   1.0000000
B2   B   0.778629752722301   0.055981543027818   0.375000000000000   1.0000000
B2   B   0.111181622358622   0.722257477845973   0.875000000000000   1.0000000
B2   B   0.444502137553700   0.722218455848426   0.875000000000000   1.0000000
B2   B   0.277928190168192   0.222306626034927   0.875000000000000   1.0000000
B2   B   0.777807640548976   0.722187480804213   0.875000000000000   1.0000000
B2   B   0.611142609896516   0.222299838335924   0.875000000000000   1.0000000
B2   B   0.944536065705111   0.222277100948751   0.875000000000000   1.0000000
B2   B   0.275329905672283   0.721689449055808   0.375000000000000   1.0000000
B2   B   0.114359071897681   0.223846202615505   0.375000000000000   1.0000000
B2   B   0.442708453656369   0.215071184869524   0.375000000000000   1.0000000
B2   B   0.610676779959111   0.726596241135560   0.375000000000000   1.0000000
B2   B   0.941221401355575   0.720361390830614   0.375000000000000   1.0000000
B2   B   0.778130332642859   0.221599592727817   0.375000000000000   1.0000000
B2   B   0.111193261130776   0.888929904163196   0.875000000000000   1.0000000
B2   B   0.444500638520354   0.888916985926850   0.875000000000000   1.0000000
B2   B   0.277928190168192   0.388954897466592   0.875000000000000   1.0000000
B2   B   0.611135052074073   0.388957360219071   0.875000000000000   1.0000000
B2   B   0.777825225557719   0.888875886785727   0.875000000000000   1.0000000
B2   B   0.944513567780576   0.388945126880630   0.875000000000000   1.0000000
B2   B   0.111725993133863   0.389496360785270   0.375000000000000   1.0000000
B2   B   0.275329905672283   0.886973789949808   0.375000000000000   1.0000000
B2   B   0.611022966962377   0.890302137723243   0.375000000000000   1.0000000
B2   B   0.943456723460153   0.888399712035641   0.375000000000000   1.0000000
B2   B   0.775375102307223   0.387321154215961   0.375000000000000   1.0000000
B2   B   0.277878351654729   0.555588526604739   0.875000000000000   1.0000000
B2   B   0.111225404933780   0.055613886511860   0.875000000000000   1.0000000
B2   B   0.611135052074073   0.555511025188342   0.875000000000000   1.0000000
B2   B   0.444502137553700   0.055617015038612   0.875000000000000   1.0000000
B2   B   0.944501389655008   0.555598922964827   0.875000000000000   1.0000000
B2   B   0.108737398314099   0.554956212663843   0.375000000000000   1.0000000
B2   B   0.777836370593197   0.055584851963266   0.875000000000000   1.0000000
B2   B   0.276045171538347   0.052939791949392   0.375000000000000   1.0000000
B2   B   0.442708453656369   0.560970602120183   0.375000000000000   1.0000000
B2   B   0.772995705614897   0.553164519474117   0.375000000000000   1.0000000
B2   B   0.611022966962377   0.054054162572468   0.375000000000000   1.0000000
B2   B   0.444529782787276   0.555557121731200   0.875000000000000   1.0000000
B2   B   0.945868669326079   0.056473927365593   0.375000000000000   1.0000000
B2   B   0.277851473774595   0.722249912198466   0.875000000000000   1.0000000
B2   B   0.111251229315457   0.222292281324391   0.875000000000000   1.0000000
B2   B   0.444529782787276   0.222305994389409   0.875000000000000   1.0000000
B2   B   0.611142609896516   0.722176104893928   0.875000000000000   1.0000000
B2   B   0.944501389655008   0.722235800023531   0.875000000000000   1.0000000
B2   B   0.777825225557719   0.222282672105312   0.875000000000000   1.0000000
B2   B   0.108079105003041   0.720706219168193   0.375000000000000   1.0000000
B2   B   0.443060065734926   0.724521555056853   0.375000000000000   1.0000000
B2   B   0.281716346357834   0.223241347445143   0.375000000000000   1.0000000
B2   B   0.775375102307223   0.721387281424582   0.375000000000000   1.0000000
B2   B   0.610676779959111   0.217413872156882   0.375000000000000   1.0000000
B2   B   0.945868669326079   0.222728075293817   0.375000000000000   1.0000000
B2   B   0.111225404933780   0.388944851755247   0.875000000000000   1.0000000
B2   B   0.277851473774595   0.888934894909455   0.875000000000000   1.0000000
B2   B   0.611154305151769   0.888887127841624   0.875000000000000   1.0000000
B2   B   0.444580014176195   0.388956673754772   0.875000000000000   1.0000000
B2   B   0.944513567780576   0.888901774233270   0.875000000000000   1.0000000
B2   B   0.108737398314099   0.887114518983595   0.375000000000000   1.0000000
B2   B   0.777807640548976   0.388953493078091   0.875000000000000   1.0000000
B2   B   0.443039299460906   0.888186316397119   0.375000000000000   1.0000000
B2   B   0.281716346357833   0.391808332246024   0.375000000000000   1.0000000
B2   B   0.276045171538346   0.556438712922277   0.375000000000000   1.0000000
B2   B   0.607215518185505   0.379419415268083   0.375000000000000   1.0000000
B2   B   0.778130332642859   0.889864073248379   0.375000000000000   1.0000000
B2   B   0.943456723460153   0.388390344757834   0.375000000000000   1.0000000
B2   B   0.111193261130776   0.555596690300908   0.875000000000000   1.0000000
B2   B   0.277878351654729   0.055623158383329   0.875000000000000   1.0000000
B2   B   0.777805945145379   0.555569639239354   0.875000000000000   1.0000000
B2   B   0.611154305151769   0.055600510643483   0.875000000000000   1.0000000
B2   B   0.944536065705111   0.055592298089686   0.875000000000000   1.0000000
B2   B   0.055691990447740   0.111199242597745   0.125130294161100   1.0000000
B2   B   0.555714713652428   0.611012142093245   0.124420783750990   1.0000000
B2   B   0.389102742254523   0.111391848797838   0.125048572966731   1.0000000
B2   B   0.888765967155538   0.611049650244438   0.124833451462722   1.0000000
B2   B   0.722343160585832   0.111181303135254   0.125010953508409   1.0000000
B2   B   0.055596675569535   0.777815865457042   0.624924693065719   1.0000000
B2   B   0.389062775530290   0.777806734357140   0.624924815219645   1.0000000
B2   B   0.222380860944020   0.277857097138683   0.624977007324919   1.0000000
B2   B   0.722269186931366   0.777770082909012   0.625305028436199   1.0000000
B2   B   0.555714713652428   0.278035904892515   0.625579216248995   1.0000000
B2   B   0.888978725959606   0.277815509005602   0.624965346047893   1.0000000
B2   B   0.222350487187433   0.777841910260394   0.125078306987437   1.0000000
B2   B   0.055691990447740   0.277826081183344   0.125130294161100   1.0000000
B2   B   0.389010133889444   0.277981168433287   0.124455769771070   1.0000000
B2   B   0.555705756960145   0.777771199276251   0.124913998134812   1.0000000
B2   B   0.888874394839788   0.777773035917831   0.124903444885340   1.0000000
B2   B   0.722269186931366   0.277832437355701   0.124694971563802   1.0000000
B2   B   0.055656956177909   0.944531210100255   0.624874430937876   1.0000000
B2   B   0.389062775530290   0.944589374506484   0.624924815219645   1.0000000
B2   B   0.222388420791359   0.444438569824412   0.624879284242718   1.0000000
B2   B   0.555516225131197   0.444424779232263   0.622915742369221   1.0000000
B2   B   0.722343160585832   0.944495190783914   0.624989046491586   1.0000000
B2   B   0.888874394839788   0.444434692255283   0.625096555114661   1.0000000
B2   B   0.055656956177909   0.444459079410989   0.125125569062116   1.0000000
B2   B   0.222382688830152   0.944604561905288   0.125104451514826   1.0000000
B2   B   0.555710217301162   0.944521775317245   0.125051474990840   1.0000000
B2   B   0.389010133889444   0.444362298789492   0.124455769771070   1.0000000
B2   B   0.888978725959606   0.944496550287332   0.125034653952111   1.0000000
B2   B   0.722031074370279   0.444354569261400   0.124150023766223   1.0000000
B2   B   0.222382688830152   0.611111460258197   0.624895548485181   1.0000000
B2   B   0.055691990447740   0.111199242597745   0.624869705838899   1.0000000
B2   B   0.555714713652428   0.611012142093245   0.625579216248995   1.0000000
B2   B   0.389102742254523   0.111391848797838   0.624951427033278   1.0000000
B2   B   0.888765967155538   0.611049650244438   0.625166548537279   1.0000000
B2   B   0.055596675569535   0.611114143445848   0.125075306934278   1.0000000
B2   B   0.722343160585832   0.111181303135254   0.624989046491586   1.0000000
B2   B   0.222388420791359   0.111283184300282   0.125120715757288   1.0000000
B2   B   0.389102742254523   0.611044226790025   0.125048572966731   1.0000000
B2   B   0.722031074370279   0.611009838442208   0.124150023766223   1.0000000
B2   B   0.555705756960145   0.111267891017224   0.124913998134812   1.0000000
B2   B   0.389102742254523   0.611044226790025   0.624951427033278   1.0000000
B2   B   0.889011436303535   0.111172384818431   0.125036559606530   1.0000000
B2   B   0.222350487187433   0.777841910260394   0.624921693012563   1.0000000
B2   B   0.055691990447740   0.277826081183344   0.624869705838899   1.0000000
B2   B   0.389010133889444   0.277981168433287   0.625544230228933   1.0000000
B2   B   0.555705756960145   0.777771199276251   0.625086001865181   1.0000000
B2   B   0.888874394839788   0.777773035917831   0.625096555114661   1.0000000
B2   B   0.722269186931366   0.277832437355701   0.625305028436199   1.0000000
B2   B   0.055596675569535   0.777815865457042   0.125075306934278   1.0000000
B2   B   0.389062775530290   0.777806734357140   0.125075184780346   1.0000000
B2   B   0.222380860944020   0.277857097138683   0.125022992675081   1.0000000
B2   B   0.722269186931366   0.777770082909012   0.124694971563802   1.0000000
B2   B   0.555714713652428   0.278035904892515   0.124420783750990   1.0000000
B2   B   0.888978725959606   0.277815509005602   0.125034653952111   1.0000000
B2   B   0.055656956177909   0.444459079410989   0.624874430937876   1.0000000
B2   B   0.222382688830152   0.944604561905288   0.624895548485181   1.0000000
B2   B   0.555710217301162   0.944521775317245   0.624948525009158   1.0000000
B2   B   0.389010133889445   0.444362298789492   0.625544230228933   1.0000000
B2   B   0.888978725959606   0.944496550287332   0.624965346047893   1.0000000
B2   B   0.055656956177909   0.944531210100255   0.125125569062116   1.0000000
B2   B   0.722031074370279   0.444354569261400   0.625849976233761   1.0000000
B2   B   0.389062775530290   0.944589374506484   0.125075184780346   1.0000000
B2   B   0.222388420791359   0.444438569824412   0.125120715757288   1.0000000
B2   B   0.222382688830152   0.611111460258197   0.125104451514826   1.0000000
B2   B   0.555516225131197   0.444424779232263   0.127084257630776   1.0000000
B2   B   0.722343160585832   0.944495190783914   0.125010953508409   1.0000000
B2   B   0.888874394839788   0.444434692255283   0.124903444885340   1.0000000
B2   B   0.055596675569535   0.611114143445848   0.624924693065719   1.0000000
B2   B   0.222388420791359   0.111283184300282   0.624879284242718   1.0000000
B2   B   0.722031074370279   0.611009838442208   0.625849976233761   1.0000000
B2   B   0.555705756960145   0.111267891017224   0.625086001865181   1.0000000
B2   B   0.889011436303535   0.111172384818431   0.624963440393458   1.0000000


