data_1
_audit_creation_method   'vasp2cif'
_cell_length_a    14.93631414619966
_cell_length_b    14.936314146199727
_cell_length_c    13.341276283792837
_cell_angle_alpha    90.0
_cell_angle_beta    90.0
_cell_angle_gamma    119.99999999999984

_symmetry_space_group_name_H-M    'P 1'
loop_
_atom_site_label
_atom_site_type_symbol
_atom_site_fract_x
_atom_site_fract_y
_atom_site_fract_z
_atom_site_occupancy
O2   O   0.566546327212176   0.449939830272752   0.375000000000000   1.0000000
N2   N   0.111111132971914   0.055548769361647   0.125067781312003   1.0000000
N2   N   0.611126288448263   0.555551885473885   0.125596942045306   1.0000000
N2   N   0.444440073509432   0.055561334050256   0.125019404091354   1.0000000
N2   N   0.944458899906676   0.555566787580489   0.124945326255900   1.0000000
N2   N   0.777784787610290   0.055559060471813   0.124979439840964   1.0000000
N2   N   0.111113721459175   0.722223527396252   0.625028586010362   1.0000000
N2   N   0.444440073509432   0.722212072792511   0.624980595908646   1.0000000
N2   N   0.277791465109769   0.222238192282867   0.624231028728685   1.0000000
N2   N   0.777797315980906   0.722227735206861   0.625044649875418   1.0000000
N2   N   0.611122356624409   0.222241571717234   0.624934514566816   1.0000000
N2   N   0.944451050045229   0.222230219506942   0.625018981117801   1.0000000
N2   N   0.277769800057366   0.722216831618710   0.125006357851030   1.0000000
N2   N   0.111115129550436   0.222224231441882   0.125142973972318   1.0000000
N2   N   0.444448725557321   0.222244236514502   0.125606474972558   1.0000000
N2   N   0.611122356624409   0.722214118240502   0.125065485433185   1.0000000
N2   N   0.944458899906676   0.722225445659524   0.124945326255900   1.0000000
N2   N   0.777787896409867   0.222233565255717   0.124946441627178   1.0000000
N2   N   0.111112728612915   0.888885694081979   0.624988842272526   1.0000000
N2   N   0.444440283377757   0.888886808355543   0.625048353445597   1.0000000
N2   N   0.277791465109769   0.388886606160231   0.624231028728685   1.0000000
N2   N   0.611126288448263   0.388907736307706   0.624403057954694   1.0000000
N2   N   0.777787896409867   0.888887664487480   0.625053558372822   1.0000000
N2   N   0.944455830170524   0.388902543477592   0.625047085463469   1.0000000
N2   N   0.111111132971914   0.388895696943595   0.125067781312003   1.0000000
N2   N   0.277769800057366   0.888886301771985   0.125006357851030   1.0000000
N2   N   0.611106397386690   0.888879662989515   0.124980094203273   1.0000000
N2   N   0.444465343076073   0.388899338204701   0.125012842313734   1.0000000
N2   N   0.944455830170524   0.888886620026261   0.124952914536531   1.0000000
N2   N   0.777797315980906   0.388902914107375   0.124955350124582   1.0000000
N2   N   0.277782732904215   0.555548361132102   0.624759163765271   1.0000000
N2   N   0.111111132971914   0.055548769361647   0.624932218687998   1.0000000
N2   N   0.611126288448263   0.555551885473885   0.624403057954694   1.0000000
N2   N   0.444440073509432   0.055561334050256   0.624980595908646   1.0000000
N2   N   0.944458899906676   0.555566787580489   0.625054673744101   1.0000000
N2   N   0.111112728612915   0.555560367864266   0.125011157727474   1.0000000
N2   N   0.777784787610290   0.055559060471813   0.625020560159036   1.0000000
N2   N   0.277782732904215   0.055567705105448   0.125240836234728   1.0000000
N2   N   0.444448725557321   0.555537822376155   0.125606474972558   1.0000000
N2   N   0.777804897136256   0.555569115234796   0.124991328905254   1.0000000
N2   N   0.611106397386690   0.055560067730503   0.124980094203273   1.0000000
N2   N   0.444448725557321   0.555537822376155   0.624393525027442   1.0000000
N2   N   0.944451050045229   0.055554163871623   0.124981018882199   1.0000000
N2   N   0.277769800057366   0.722216831618710   0.624993642148970   1.0000000
N2   N   0.111115129550436   0.222224231441882   0.624857026027681   1.0000000
N2   N   0.444448725557321   0.222244236514502   0.624393525027442   1.0000000
N2   N   0.611122356624409   0.722214118240502   0.624934514566816   1.0000000
N2   N   0.944458899906676   0.722225445659524   0.625054673744101   1.0000000
N2   N   0.777787896409867   0.222233565255717   0.625053558372822   1.0000000
N2   N   0.111113721459175   0.722223527396252   0.124971413989637   1.0000000
N2   N   0.444440073509432   0.722212072792511   0.125019404091354   1.0000000
N2   N   0.277791465109769   0.222238192282867   0.125768971271315   1.0000000
N2   N   0.777797315980906   0.722227735206861   0.124955350124582   1.0000000
N2   N   0.611122356624409   0.222241571717234   0.125065485433185   1.0000000
N2   N   0.944451050045229   0.222230219506942   0.124981018882199   1.0000000
N2   N   0.111111132971914   0.388895696943595   0.624932218687998   1.0000000
N2   N   0.277769800057366   0.888886301771985   0.624993642148970   1.0000000
N2   N   0.611106397386690   0.888879662989515   0.625019905796728   1.0000000
N2   N   0.444465343076073   0.388899338204701   0.624987157686266   1.0000000
N2   N   0.944455830170524   0.888886620026261   0.625047085463469   1.0000000
N2   N   0.111112728612915   0.888885694081979   0.125011157727474   1.0000000
N2   N   0.777797315980906   0.388902914107375   0.625044649875418   1.0000000
N2   N   0.444440283377757   0.888886808355543   0.124951646554403   1.0000000
N2   N   0.277791465109769   0.388886606160231   0.125768971271315   1.0000000
N2   N   0.277782732904215   0.555548361132102   0.125240836234728   1.0000000
N2   N   0.611126288448263   0.388907736307706   0.125596942045306   1.0000000
N2   N   0.777787896409867   0.888887664487480   0.124946441627178   1.0000000
N2   N   0.944455830170524   0.388902543477592   0.124952914536531   1.0000000
N2   N   0.111112728612915   0.555560367864266   0.624988842272526   1.0000000
N2   N   0.277782732904215   0.055567705105448   0.624759163765271   1.0000000
N2   N   0.777804897136256   0.555569115234796   0.625008671094746   1.0000000
N2   N   0.611106397386690   0.055560067730503   0.625019905796728   1.0000000
N2   N   0.944451050045229   0.055554163871623   0.625018981117801   1.0000000
N2   N   0.053264397478933   0.109689832041464   0.375000000000000   1.0000000
N2   N   0.556264762294807   0.608335961125304   0.375000000000000   1.0000000
N2   N   0.389596094753151   0.113758765582723   0.375000000000000   1.0000000
N2   N   0.891188780539965   0.612261056936654   0.375000000000000   1.0000000
N2   N   0.721481657160929   0.111019955920497   0.375000000000000   1.0000000
N2   N   0.055543727523378   0.777773578631514   0.875000000000000   1.0000000
N2   N   0.388881385118364   0.777777609458973   0.875000000000000   1.0000000
N2   N   0.222209237393427   0.277771285363382   0.875000000000000   1.0000000
N2   N   0.722214337724724   0.777778296888011   0.875000000000000   1.0000000
N2   N   0.555548185328690   0.277771474283002   0.875000000000000   1.0000000
N2   N   0.888879759416845   0.277770683330816   0.875000000000000   1.0000000
N2   N   0.223301585568277   0.778317459450806   0.375000000000000   1.0000000
N2   N   0.053264397478933   0.276907898770804   0.375000000000000   1.0000000
N2   N   0.384216641643339   0.277404886734552   0.375000000000000   1.0000000
N2   N   0.555587471238237   0.776418053105083   0.375000000000000   1.0000000
N2   N   0.889862093483815   0.778211397395122   0.375000000000000   1.0000000
N2   N   0.722161278840302   0.278395464227416   0.375000000000000   1.0000000
N2   N   0.055537401607059   0.944433373653611   0.875000000000000   1.0000000
N2   N   0.388881385118364   0.944437108992726   0.875000000000000   1.0000000
N2   N   0.222210342752766   0.444438131065784   0.875000000000000   1.0000000
N2   N   0.555555937133168   0.444444635233249   0.875000000000000   1.0000000
N2   N   0.722211781621406   0.944440416429177   0.875000000000000   1.0000000
N2   N   0.888879352542758   0.444438595887172   0.875000000000000   1.0000000
N2   N   0.055157133209547   0.444365925849149   0.375000000000000   1.0000000
N2   N   0.223121303860432   0.945664425831016   0.375000000000000   1.0000000
N2   N   0.555492371741784   0.944412852537556   0.375000000000000   1.0000000
N2   N   0.384216641643339   0.440145088242122   0.375000000000000   1.0000000
N2   N   0.887888400183154   0.943622711594540   0.375000000000000   1.0000000
N2   N   0.725147327647312   0.446001221523512   0.375000000000000   1.0000000
N2   N   0.222210916821113   0.611105266005025   0.875000000000000   1.0000000
N2   N   0.055541728456180   0.111101432588855   0.875000000000000   1.0000000
N2   N   0.555548185328690   0.611110044379024   0.875000000000000   1.0000000
N2   N   0.388880947813855   0.111100738821392   0.875000000000000   1.0000000
N2   N   0.888878572019642   0.611105952676493   0.875000000000000   1.0000000
N2   N   0.056914096271847   0.611633543526993   0.375000000000000   1.0000000
N2   N   0.722211781621406   0.111104698525565   0.875000000000000   1.0000000
N2   N   0.220313146058413   0.110508152842640   0.375000000000000   1.0000000
N2   N   0.389596094753151   0.609170662503770   0.375000000000000   1.0000000
N2   N   0.725147327647312   0.612479439457136   0.375000000000000   1.0000000
N2   N   0.555587471238237   0.112502751466489   0.375000000000000   1.0000000
N2   N   0.388880947813855   0.611113542325806   0.875000000000000   1.0000000
N2   N   0.887403418908950   0.110368376121146   0.375000000000000   1.0000000
N2   N   0.222208916447987   0.777771124890661   0.875000000000000   1.0000000
N2   N   0.055541728456180   0.277773629200660   0.875000000000000   1.0000000
N2   N   0.388882755524578   0.277770192140887   0.875000000000000   1.0000000
N2   N   0.555548823696796   0.777779296278819   0.875000000000000   1.0000000
N2   N   0.888879352542758   0.777774089988923   0.875000000000000   1.0000000
N2   N   0.722214337724724   0.277769374170048   0.875000000000000   1.0000000
N2   N   0.056914096271847   0.778613886078190   0.375000000000000   1.0000000
N2   N   0.389477837161397   0.777418315070595   0.375000000000000   1.0000000
N2   N   0.217782002393973   0.275557667863655   0.375000000000000   1.0000000
N2   N   0.722161278840302   0.777099147946223   0.375000000000000   1.0000000
N2   N   0.556264762294807   0.281262134502839   0.375000000000000   1.0000000
N2   N   0.887888400183154   0.277599021921950   0.375000000000000   1.0000000
N2   N   0.055537401607059   0.444437361286775   0.875000000000000   1.0000000
N2   N   0.222210916821113   0.944438984149424   0.875000000000000   1.0000000
N2   N   0.555546921981884   0.944440127657606   0.875000000000000   1.0000000
N2   N   0.388882755524578   0.444445896717027   0.875000000000000   1.0000000
N2   N   0.888879759416845   0.944442409419366   0.875000000000000   1.0000000
N2   N   0.055157133209547   0.944124540693727   0.375000000000000   1.0000000
N2   N   0.722213428708713   0.444436839958082   0.875000000000000   1.0000000
N2   N   0.389477837161397   0.945392855424137   0.375000000000000   1.0000000
N2   N   0.220313146058413   0.443138326549109   0.375000000000000   1.0000000
N2   N   0.223121303860432   0.610790211362750   0.375000000000000   1.0000000
N2   N   0.721481657160929   0.943795034573767   0.375000000000000   1.0000000
N2   N   0.889862093483815   0.444984029422029   0.375000000000000   1.0000000
N2   N   0.055543727523378   0.611103482225199   0.875000000000000   1.0000000
N2   N   0.222210342752766   0.111105545020318   0.875000000000000   1.0000000
N2   N   0.722213428708713   0.611109922083966   0.875000000000000   1.0000000
N2   N   0.555548823696796   0.111102860751312   0.875000000000000   1.0000000
N2   N   0.888873765917868   0.111103549625606   0.875000000000000   1.0000000
B2   B   0.108729631813754   0.054234392990909   0.375000000000000   1.0000000
B2   B   0.615213760454730   0.555137480673024   0.375000000000000   1.0000000
B2   B   0.444896808656663   0.056624780781649   0.375000000000000   1.0000000
B2   B   0.945947530367278   0.556127386351523   0.375000000000000   1.0000000
B2   B   0.776514987004044   0.054924160168690   0.375000000000000   1.0000000
B2   B   0.110904430383355   0.722118881858342   0.875000000000000   1.0000000
B2   B   0.444541068311101   0.722435441514221   0.875000000000000   1.0000000
B2   B   0.277845002678258   0.222103494941453   0.875000000000000   1.0000000
B2   B   0.777876611639651   0.722138018152357   0.875000000000000   1.0000000
B2   B   0.610926772766652   0.222109965466179   0.875000000000000   1.0000000
B2   B   0.944508178122429   0.222399797009851   0.875000000000000   1.0000000
B2   B   0.278540989418302   0.722394221582581   0.375000000000000   1.0000000
B2   B   0.106345298681027   0.219839316007178   0.375000000000000   1.0000000
B2   B   0.446598403287467   0.224915644069842   0.375000000000000   1.0000000
B2   B   0.611470862801316   0.721041580462887   0.375000000000000   1.0000000
B2   B   0.945947530367278   0.723153477349090   0.375000000000000   1.0000000
B2   B   0.776980750657722   0.222087527609266   0.375000000000000   1.0000000
B2   B   0.111182859589861   0.888775412663903   0.875000000000000   1.0000000
B2   B   0.444252437576592   0.888792885454961   0.875000000000000   1.0000000
B2   B   0.277845002678258   0.389074841070134   0.875000000000000   1.0000000
B2   B   0.611220949775371   0.388789663812706   0.875000000000000   1.0000000
B2   B   0.777865685268903   0.889086682639114   0.875000000000000   1.0000000
B2   B   0.944235298070414   0.388783935248283   0.875000000000000   1.0000000
B2   B   0.108729631813754   0.387828572156174   0.375000000000000   1.0000000
B2   B   0.278540989418302   0.889480101169049   0.375000000000000   1.0000000
B2   B   0.610759700340025   0.888313066581971   0.375000000000000   1.0000000
B2   B   0.944146508220941   0.888767069894600   0.375000000000000   1.0000000
B2   B   0.779276810951307   0.389474862165134   0.375000000000000   1.0000000
B2   B   0.277574553333786   0.555472540044493   0.875000000000000   1.0000000
B2   B   0.111171662807262   0.055719731515854   0.875000000000000   1.0000000
B2   B   0.611220949775371   0.555764619295993   0.875000000000000   1.0000000
B2   B   0.444541068311101   0.055438960130216   0.875000000000000   1.0000000
B2   B   0.944531364954647   0.555451380857897   0.875000000000000   1.0000000
B2   B   0.111619129398467   0.555561423339209   0.375000000000000   1.0000000
B2   B   0.777571527497813   0.055452430415575   0.875000000000000   1.0000000
B2   B   0.277824643996447   0.056184963240125   0.375000000000000   1.0000000
B2   B   0.446598403287467   0.555016092550961   0.375000000000000   1.0000000
B2   B   0.780834172353247   0.557083752843292   0.375000000000000   1.0000000
B2   B   0.610759700340025   0.055779967091384   0.375000000000000   1.0000000
B2   B   0.444549339860737   0.555493317750525   0.875000000000000   1.0000000
B2   B   0.942154094460926   0.054224591341521   0.375000000000000   1.0000000
B2   B   0.277866850527820   0.722131322830284   0.875000000000000   1.0000000
B2   B   0.110884437159402   0.222108885246365   0.875000000000000   1.0000000
B2   B   0.444549339860737   0.222389355443547   0.875000000000000   1.0000000
B2   B   0.610926772766652   0.722150140633802   0.875000000000000   1.0000000
B2   B   0.944531364954647   0.722413317430084   0.875000000000000   1.0000000
B2   B   0.777865685268903   0.222112335963118   0.875000000000000   1.0000000
B2   B   0.112206130538498   0.722769731935914   0.375000000000000   1.0000000
B2   B   0.444896808656663   0.721605361208349   0.375000000000000   1.0000000
B2   B   0.271883340282989   0.219850400643036   0.375000000000000   1.0000000
B2   B   0.779276810951307   0.723135282119501   0.375000000000000   1.0000000
B2   B   0.611470862801316   0.223762615671756   0.375000000000000   1.0000000
B2   B   0.942154094460926   0.221262836452741   0.375000000000000   1.0000000
B2   B   0.111171662807262   0.388785264624737   0.875000000000000   1.0000000
B2   B   0.277866850527820   0.889068861030866   0.875000000000000   1.0000000
B2   B   0.611207103144817   0.888801960303173   0.875000000000000   1.0000000
B2   B   0.444271693789999   0.388802513561664   0.875000000000000   1.0000000
B2   B   0.944235298070414   0.888784696155459   0.875000000000000   1.0000000
B2   B   0.111619129398467   0.889391039392587   0.375000000000000   1.0000000
B2   B   0.777876611639651   0.389071926820622   0.875000000000000   1.0000000
B2   B   0.444695061853015   0.889014197593172   0.375000000000000   1.0000000
B2   B   0.271883340282989   0.385366272973282   0.375000000000000   1.0000000
B2   B   0.277824643996447   0.554973014089657   0.375000000000000   1.0000000
B2   B   0.615213760454730   0.393409613115034   0.375000000000000   1.0000000
B2   B   0.776980750657722   0.888226556381785   0.375000000000000   1.0000000
B2   B   0.944146508220941   0.388712771659668   0.375000000000000   1.0000000
B2   B   0.111182859589861   0.555740780259286   0.875000000000000   1.0000000
B2   B   0.277574553333786   0.055435346622629   0.875000000000000   1.0000000
B2   B   0.777591663089641   0.555462498211488   0.875000000000000   1.0000000
B2   B   0.611207103144817   0.055738476174972   0.875000000000000   1.0000000
B2   B   0.944508178122429   0.055441714445914   0.875000000000000   1.0000000
B2   B   0.055473970676375   0.111034517564708   0.125022107399001   1.0000000
B2   B   0.555657741827672   0.611177996441371   0.125311018693324   1.0000000
B2   B   0.388900966469256   0.111044471456214   0.125217561625912   1.0000000
B2   B   0.888947080743260   0.611140207038302   0.125093787420922   1.0000000
B2   B   0.722232302046742   0.111119912293190   0.125068157573348   1.0000000
B2   B   0.055539759209117   0.777746490927203   0.624929599188413   1.0000000
B2   B   0.388875259793910   0.777800498606839   0.624956182702461   1.0000000
B2   B   0.222129594912860   0.277731464123098   0.624694577467359   1.0000000
B2   B   0.722283548775371   0.777814593859655   0.624896618270922   1.0000000
B2   B   0.555657741827672   0.277813078719635   0.624688981306677   1.0000000
B2   B   0.888876757854149   0.277791975124317   0.624951626563209   1.0000000
B2   B   0.222191158211073   0.777762245772205   0.125131766058992   1.0000000
B2   B   0.055473970676375   0.277772786445003   0.125022107399001   1.0000000
B2   B   0.388977524077860   0.277864308963776   0.125164901003420   1.0000000
B2   B   0.555582833536144   0.777822085534270   0.125032870117596   1.0000000
B2   B   0.888919668932171   0.777772771095546   0.125036518003498   1.0000000
B2   B   0.722283548775371   0.277802288249051   0.125103381729079   1.0000000
B2   B   0.055510409565897   0.944365956537564   0.624897118465130   1.0000000
B2   B   0.388875259793910   0.944408094520406   0.624956182702461   1.0000000
B2   B   0.222138315714776   0.444480642313138   0.624827156318837   1.0000000
B2   B   0.555591487683632   0.444462410508481   0.624458566244077   1.0000000
B2   B   0.722232302046742   0.944445723086888   0.624931842426652   1.0000000
B2   B   0.888919668932171   0.444480231169960   0.624963481996502   1.0000000
B2   B   0.055510409565897   0.444477786361662   0.125102881534870   1.0000000
B2   B   0.222171675962273   0.944343205011076   0.125081571572226   1.0000000
B2   B   0.555557670413466   0.944445501873397   0.125113777150331   1.0000000
B2   B   0.388977524077860   0.444446548447420   0.125164901003420   1.0000000
B2   B   0.888876757854149   0.944418116063168   0.125048373436790   1.0000000
B2   B   0.722326356474678   0.444490744852612   0.125178538831775   1.0000000
B2   B   0.222171675962273   0.611161804284532   0.624918428427774   1.0000000
B2   B   0.055473970676375   0.111034517564708   0.624977892600999   1.0000000
B2   B   0.555657741827672   0.611177996441371   0.624688981306677   1.0000000
B2   B   0.388900966469256   0.111044471456214   0.624782438374089   1.0000000
B2   B   0.888947080743260   0.611140207038302   0.624906212579078   1.0000000
B2   B   0.055539759209117   0.611126601615250   0.125070400811587   1.0000000
B2   B   0.722232302046742   0.111119912293190   0.624931842426652   1.0000000
B2   B   0.222138315714776   0.110991006734974   0.125172843681162   1.0000000
B2   B   0.388900966469256   0.611189828346385   0.125217561625912   1.0000000
B2   B   0.722326356474678   0.611168944955402   0.125178538831775   1.0000000
B2   B   0.555582833536144   0.111094081335210   0.125032870117596   1.0000000
B2   B   0.388900966469256   0.611189828346385   0.624782438374089   1.0000000
B2   B   0.888862433883977   0.111097883608660   0.125117845336771   1.0000000
B2   B   0.222191158211073   0.777762245772205   0.624868233941009   1.0000000
B2   B   0.055473970676375   0.277772786445003   0.624977892600999   1.0000000
B2   B   0.388977524077860   0.277864308963776   0.624835098996580   1.0000000
B2   B   0.555582833536144   0.777822085534270   0.624967129882404   1.0000000
B2   B   0.888919668932171   0.777772771095546   0.624963481996502   1.0000000
B2   B   0.722283548775371   0.277802288249051   0.624896618270922   1.0000000
B2   B   0.055539759209117   0.777746490927203   0.125070400811587   1.0000000
B2   B   0.388875259793910   0.777800498606839   0.125043817297540   1.0000000
B2   B   0.222129594912860   0.277731464123098   0.125305422532640   1.0000000
B2   B   0.722283548775371   0.777814593859655   0.125103381729079   1.0000000
B2   B   0.555657741827672   0.277813078719635   0.125311018693324   1.0000000
B2   B   0.888876757854149   0.277791975124317   0.125048373436790   1.0000000
B2   B   0.055510409565897   0.444477786361662   0.624897118465130   1.0000000
B2   B   0.222171675962273   0.944343205011076   0.624918428427774   1.0000000
B2   B   0.555557670413466   0.944445501873397   0.624886222849670   1.0000000
B2   B   0.388977524077860   0.444446548447420   0.624835098996580   1.0000000
B2   B   0.888876757854149   0.944418116063168   0.624951626563209   1.0000000
B2   B   0.055510409565897   0.944365956537564   0.125102881534870   1.0000000
B2   B   0.722326356474678   0.444490744852612   0.624821461168224   1.0000000
B2   B   0.388875259793910   0.944408094520406   0.125043817297540   1.0000000
B2   B   0.222138315714776   0.444480642313138   0.125172843681162   1.0000000
B2   B   0.222171675962273   0.611161804284532   0.125081571572226   1.0000000
B2   B   0.555591487683632   0.444462410508481   0.125541433755923   1.0000000
B2   B   0.722232302046742   0.944445723086888   0.125068157573348   1.0000000
B2   B   0.888919668932171   0.444480231169960   0.125036518003498   1.0000000
B2   B   0.055539759209117   0.611126601615250   0.624929599188413   1.0000000
B2   B   0.222138315714776   0.110991006734974   0.624827156318837   1.0000000
B2   B   0.722326356474678   0.611168944955402   0.624821461168224   1.0000000
B2   B   0.555582833536144   0.111094081335210   0.624967129882404   1.0000000
B2   B   0.888862433883977   0.111097883608660   0.624882154663230   1.0000000


