data_1
_audit_creation_method   'vasp2cif'
_cell_length_a    17.52789999999977
_cell_length_b    17.52789999999977
_cell_length_c    15.0
_cell_angle_alpha    90.0
_cell_angle_beta    90.0
_cell_angle_gamma    119.99999999999916

_symmetry_space_group_name_H-M    'P 1'
loop_
_atom_site_label
_atom_site_type_symbol
_atom_site_fract_x
_atom_site_fract_y
_atom_site_fract_z
_atom_site_occupancy
B2   B   0.905857269632763   0.954278037267277   0.127057830409915   1.0000000
B2   B   0.905588431135291   0.096888760035579   0.123097625465154   1.0000000
B2   B   0.905026342527203   0.239277849562832   0.117439317437361   1.0000000
B2   B   0.903799007608871   0.381526753229659   0.109860032666510   1.0000000
B2   B   0.903552475225817   0.524121383872697   0.103763163635305   1.0000000
B2   B   0.906263607572844   0.668687945827711   0.112976556167714   1.0000000
B2   B   0.906364052362380   0.811641014412888   0.124975081364035   1.0000000
B2   B   0.048225708326991   0.953273221767699   0.127901795930003   1.0000000
B2   B   0.048570274397617   0.096625715227063   0.124212446960621   1.0000000
B2   B   0.048537897714637   0.239277849562832   0.117439317437361   1.0000000
B2   B   0.047921420529454   0.381558161935912   0.113175062384255   1.0000000
B2   B   0.047145932393362   0.523866246594172   0.112454027820346   1.0000000
B2   B   0.047340259470521   0.666537480856989   0.116523030141966   1.0000000
B2   B   0.048025069327337   0.809924231372026   0.124730398170676   1.0000000
B2   B   0.189977063165472   0.951576973464997   0.129169156936322   1.0000000
B2   B   0.190354539313728   0.095024115814493   0.128027850994736   1.0000000
B2   B   0.191789776935561   0.239029560303358   0.116738611436745   1.0000000
B2   B   0.192014136299804   0.381526753229659   0.109860032666510   1.0000000
B2   B   0.191004993322803   0.523866246594172   0.112454027820346   1.0000000
B2   B   0.190280941280231   0.666277203438470   0.117643648538629   1.0000000
B2   B   0.190109459860947   0.808859965321173   0.123684270388114   1.0000000
B2   B   0.332626721366789   0.950968763609594   0.130025343400894   1.0000000
B2   B   0.331714489868527   0.092724644766567   0.131788316008531   1.0000000
B2   B   0.332280589169199   0.235536021124817   0.114343087864764   1.0000000
B2   B   0.335763414030562   0.380641616186321   0.093200201686599   1.0000000
B2   B   0.334855299325876   0.524121383872697   0.103763163635305   1.0000000
B2   B   0.333481900509465   0.666537480856990   0.116523030141966   1.0000000
B2   B   0.333035184583222   0.808859965321173   0.123684270388114   1.0000000
B2   B   0.475884589422520   0.951576973464997   0.129169156936322   1.0000000
B2   B   0.475296545578043   0.092724644766567   0.131788316008531   1.0000000
B2   B   0.471756109488049   0.229225828296092   0.109269446576681   1.0000000
B2   B   0.464059752880240   0.356286901878220   0.048072388734875   1.0000000
B2   B   0.477944902112543   0.533591094203292   0.067290789297904   1.0000000
B2   B   0.476710728933864   0.668687945827711   0.112976556167714   1.0000000
B2   B   0.476183841167678   0.809924231372026   0.124730398170676   1.0000000
B2   B   0.619332192563698   0.953273221767699   0.127901795930003   1.0000000
B2   B   0.618955967179769   0.095024115814493   0.128027850994736   1.0000000
B2   B   0.617541822635610   0.235536021124816   0.114343087864764   1.0000000
B2   B   0.606513539677994   0.356286901878220   0.048072388734875   1.0000000
B2   B   0.630359243583335   0.546432096487656   0.053046428132539   1.0000000
B2   B   0.620405441429541   0.672119423343340   0.105462933116945   1.0000000
B2   B   0.619563352729519   0.811641014412889   0.124975081364036   1.0000000
B2   B   0.762707158313521   0.954278037267277   0.127057830409915   1.0000000
B2   B   0.762341831508465   0.096625715227063   0.124212446960621   1.0000000
B2   B   0.761526174046788   0.239029560303358   0.116738611436745   1.0000000
B2   B   0.759164592835759   0.380641616186321   0.093200201686599   1.0000000
B2   B   0.769932582769741   0.533591094203292   0.067290789297904   1.0000000
B2   B   0.766000372592808   0.672119423343340   0.105462933116945   1.0000000
B2   B   0.763216634181664   0.812146877684306   0.124451446119610   1.0000000
N2   N   0.953254498675297   0.906407035734931   0.127808285426703   1.0000000
N2   N   0.953294181899983   0.049330554934005   0.124996334162582   1.0000000
N2   N   0.953116720524834   0.191944246519640   0.119394899124128   1.0000000
N2   N   0.952292986747893   0.334364835028936   0.113681951300867   1.0000000
N2   N   0.951552715985823   0.476690999531251   0.108930453012589   1.0000000
N2   N   0.952207063362606   0.619491479624945   0.110886911545432   1.0000000
N2   N   0.953148087430041   0.763185212671071   0.123244725296085   1.0000000
N2   N   0.095113755809687   0.904860474835608   0.127722266845032   1.0000000
N2   N   0.095396921357507   0.048252160492386   0.127166647571240   1.0000000
N2   N   0.096360050016492   0.191845674860858   0.120023773726366   1.0000000
N2   N   0.096359331255040   0.334364835028936   0.113681951300867   1.0000000
N2   N   0.095454409715894   0.476623048013782   0.112465770664666   1.0000000
N2   N   0.095006732646861   0.618966031955891   0.115350915021712   1.0000000
N2   N   0.094972657161808   0.761649149668458   0.122054982507369   1.0000000
N2   N   0.237493618202176   0.903824260056239   0.127417749550665   1.0000000
N2   N   0.236944938642402   0.046349667279053   0.131490962943542   1.0000000
N2   N   0.237790412259908   0.190023247700735   0.123010940508298   1.0000000
N2   N   0.240595421981685   0.334401857248114   0.107645860821516   1.0000000
N2   N   0.239425766519445   0.476690999531251   0.108930453012589   1.0000000
N2   N   0.238245070726039   0.618966031955891   0.115350915021712   1.0000000
N2   N   0.237823562531547   0.761361353646096   0.121696880380959   1.0000000
N2   N   0.380616413271060   0.903824260056239   0.127417749550665   1.0000000
N2   N   0.379982915907480   0.045678348841952   0.134199634975579   1.0000000
N2   N   0.378419600661439   0.186776701050343   0.124117164351195   1.0000000
N2   N   0.379300672670852   0.327910817622142   0.089742369134106   1.0000000
N2   N   0.383656361941158   0.477696607925102   0.088048683645480   1.0000000
N2   N   0.381571899235339   0.619491479624945   0.110886911545432   1.0000000
N2   N   0.380962263923647   0.761649149668458   0.122054982507369   1.0000000
N2   N   0.524032490442930   0.904860474835608   0.127722266845032   1.0000000
N2   N   0.523692211609656   0.046349667279053   0.131490962943543   1.0000000
N2   N   0.522644583361896   0.186776701050350   0.124117164351195   1.0000000
N2   N   0.513855396553045   0.313423310133090   0.068315808072457   1.0000000
N2   N   0.525354902193383   0.623434512518864   0.098792154750527   1.0000000
N2   N   0.524324608214023   0.763185212671071   0.123244725296085   1.0000000
N2   N   0.667440020032660   0.906407035734931   0.127808285426703   1.0000000
N2   N   0.667142722107875   0.048252160492386   0.127166647571241   1.0000000
N2   N   0.666520318413831   0.190023247700736   0.123010940508298   1.0000000
N2   N   0.662897627924281   0.327910817622142   0.089742369134106   1.0000000
N2   N   0.671119634256083   0.627951785540171   0.094247092485597   1.0000000
N2   N   0.667854602007557   0.764982676755514   0.121896517159468   1.0000000
N2   N   0.810599575593428   0.906911668212851   0.127519184739311   1.0000000
N2   N   0.810325567564021   0.049330554934005   0.124996334162582   1.0000000
N2   N   0.809773107818362   0.191845674860858   0.120023773726366   1.0000000
N2   N   0.808093918240422   0.334401857248114   0.107645860821516   1.0000000
N2   N   0.808327728957951   0.477696607925102   0.088048683645480   1.0000000
N2   N   0.812367093298479   0.623434512518864   0.098792154750527   1.0000000
N2   N   0.811415557720957   0.764982676755514   0.121896517159468   1.0000000
Al2   Al   0.522076806735986   0.470752053056902   0.972004928019012   1.0000000
Al2   Al   0.662962729293919   0.470752053056902   0.972004928019012   1.0000000


