data_1
_audit_creation_method   'vasp2cif'
_cell_length_a    17.52789999999977
_cell_length_b    17.52789999999977
_cell_length_c    15.0
_cell_angle_alpha    90.0
_cell_angle_beta    90.0
_cell_angle_gamma    119.99999999999916

_symmetry_space_group_name_H-M    'P 1'
loop_
_atom_site_label
_atom_site_type_symbol
_atom_site_fract_x
_atom_site_fract_y
_atom_site_fract_z
_atom_site_occupancy
B2   B   0.905648122837565   0.953840000897998   0.110870158085134   1.0000000
B2   B   0.904917070433445   0.095546038631873   0.110857254563304   1.0000000
B2   B   0.905082607237924   0.237699996050721   0.110889534650820   1.0000000
B2   B   0.906233802135175   0.380449139716692   0.110868738610675   1.0000000
B2   B   0.910598838001960   0.524578952039275   0.111105177233958   1.0000000
B2   B   0.910346607205727   0.671106745599826   0.111082100791771   1.0000000
B2   B   0.907919633457576   0.812904512942000   0.111018085052194   1.0000000
B2   B   0.048180375827540   0.952921619049355   0.110856559192157   1.0000000
B2   B   0.047087262186175   0.095041902147661   0.110865065848760   1.0000000
B2   B   0.046903779491790   0.237699996050721   0.110889534650820   1.0000000
B2   B   0.047526358425548   0.380768037728092   0.110815971944695   1.0000000
B2   B   0.049389389633176   0.524265094290463   0.110803605539812   1.0000000
B2   B   0.049670050696666   0.667751720918054   0.110866109231298   1.0000000
B2   B   0.049796916579351   0.811133179198325   0.110837614634383   1.0000000
B2   B   0.190223960478984   0.951627807560970   0.110906043508584   1.0000000
B2   B   0.188434044873906   0.093124797552697   0.110841634662572   1.0000000
B2   B   0.188174683055787   0.236569926506187   0.110833957689167   1.0000000
B2   B   0.188501728260517   0.380449139716692   0.110868738610675   1.0000000
B2   B   0.189160383779278   0.524265094290463   0.110803605539812   1.0000000
B2   B   0.190780408899651   0.667276138677304   0.110893558019115   1.0000000
B2   B   0.190983991767321   0.809710805781257   0.110924728104252   1.0000000
B2   B   0.332737956361585   0.951191233599170   0.110932880042298   1.0000000
B2   B   0.330854003094065   0.091713324714053   0.110806430616021   1.0000000
B2   B   0.327723172573744   0.232722905739936   0.110865456509634   1.0000000
B2   B   0.329053617998000   0.378644091432788   0.111222306434754   1.0000000
B2   B   0.328266504716309   0.524578952039275   0.111105177233958   1.0000000
B2   B   0.332366349344389   0.667751720918054   0.110866109231298   1.0000000
B2   B   0.333011493136930   0.809710805781257   0.110924728104252   1.0000000
B2   B   0.475688526204990   0.951627807560970   0.110906043508584   1.0000000
B2   B   0.475145712299988   0.091713324714053   0.110806430616021   1.0000000
B2   B   0.471345569926732   0.228404749173478   0.111054993189720   1.0000000
B2   B   0.465504800036170   0.361788843550073   0.112087307527948   1.0000000
B2   B   0.465111169758543   0.532378693300543   0.111617924239820   1.0000000
B2   B   0.475046529073100   0.671106745599826   0.111082100791771   1.0000000
B2   B   0.475620941741979   0.811133179198325   0.110837614634383   1.0000000
B2   B   0.619025922344810   0.952921619049355   0.110856559192157   1.0000000
B2   B   0.618977143357798   0.093124797552697   0.110841634662572   1.0000000
B2   B   0.619286123846209   0.232722905739936   0.110865456509634   1.0000000
B2   B   0.610570434193888   0.361788843550073   0.112087307527948   1.0000000
B2   B   0.628005932171923   0.541725473664844   0.111664920268772   1.0000000
B2   B   0.620758831550114   0.674065639999858   0.111560031127238   1.0000000
B2   B   0.619271270163424   0.812904512942000   0.111018085052194   1.0000000
B2   B   0.762478268739428   0.953840000897998   0.110870158085134   1.0000000
B2   B   0.762241030640503   0.095041902147661   0.110865065848760   1.0000000
B2   B   0.762681634129393   0.236569926506187   0.110833957689167   1.0000000
B2   B   0.763876864114783   0.378644091432788   0.111222306434754   1.0000000
B2   B   0.781553914221008   0.532378693300543   0.111617924239820   1.0000000
B2   B   0.767593199128757   0.674065639999858   0.111560031127238   1.0000000
B2   B   0.763717969687915   0.813149548696833   0.111255091212636   1.0000000
N2   N   0.953832004730761   0.906905418414179   0.110837073622221   1.0000000
N2   N   0.952487712376678   0.048278272951808   0.110805820475432   1.0000000
N2   N   0.952285407993165   0.190281621456292   0.110898708087634   1.0000000
N2   N   0.952871232057818   0.332699905446290   0.110833220979305   1.0000000
N2   N   0.955461280015251   0.475829738299280   0.110847119194629   1.0000000
N2   N   0.955340684235199   0.620412320124271   0.110953462629168   1.0000000
N2   N   0.955672505995611   0.765210528602918   0.110859788927600   1.0000000
N2   N   0.095850353949471   0.905415805441454   0.110848709118455   1.0000000
N2   N   0.094237377563177   0.047133995114201   0.110876370361493   1.0000000
N2   N   0.093796969266154   0.189779622909461   0.110864326149204   1.0000000
N2   N   0.094116156362479   0.332699905446290   0.110833220979305   1.0000000
N2   N   0.095112153862435   0.475938536306872   0.110740724998442   1.0000000
N2   N   0.096233832696078   0.619471894225958   0.110835967714338   1.0000000
N2   N   0.096428403907324   0.762680756490094   0.110826509825109   1.0000000
N2   N   0.237942405140881   0.904312394504925   0.110936218902732   1.0000000
N2   N   0.236385748009393   0.045799738458747   0.110859501426402   1.0000000
N2   N   0.233993944805282   0.187264765728449   0.110731554095129   1.0000000
N2   N   0.234923942295347   0.331839546375085   0.110882751724024   1.0000000
N2   N   0.234655941258047   0.475829738299280   0.110847119194629   1.0000000
N2   N   0.237523832946885   0.619471894225958   0.110835967714338   1.0000000
N2   N   0.238217849253256   0.762149927089500   0.110946133351186   1.0000000
N2   N   0.380655760781039   0.904312394504925   0.110936218902732   1.0000000
N2   N   0.379908492677087   0.045529502381199   0.110822315640615   1.0000000
N2   N   0.376815364166265   0.185551704428101   0.110762112059377   1.0000000
N2   N   0.372376428415093   0.326576461347162   0.111266085343502   1.0000000
N2   N   0.372814339480566   0.475726530997511   0.111465038133109   1.0000000
N2   N   0.379359118862060   0.620412320124271   0.110953462629168   1.0000000
N2   N   0.380538123999770   0.762680756490094   0.110826509825109   1.0000000
N2   N   0.523851222908980   0.905415805441454   0.110848709118455   1.0000000
N2   N   0.523701473422365   0.045799738458747   0.110859501426402   1.0000000
N2   N   0.523023823234827   0.185551704428101   0.110762112059377   1.0000000
N2   N   0.517752623393720   0.321217763814434   0.111778816615617   1.0000000
N2   N   0.523383940901535   0.625624344635824   0.111453849620283   1.0000000
N2   N   0.523825505580321   0.765210528602918   0.110859788927600   1.0000000
N2   N   0.667360896656409   0.906905418414179   0.110837073622221   1.0000000
N2   N   0.667184100523993   0.047133995114201   0.110876370361493   1.0000000
N2   N   0.667558303896166   0.187264765728449   0.110731554095129   1.0000000
N2   N   0.668487515905070   0.326576461347162   0.111266085343502   1.0000000
N2   N   0.673991782107697   0.633696081243424   0.111724628845177   1.0000000
N2   N   0.668214473716938   0.767561595994836   0.111334394453637   1.0000000
N2   N   0.810783288515678   0.907279094057348   0.110952001288146   1.0000000
N2   N   0.810079755105125   0.048278272951808   0.110805820475432   1.0000000
N2   N   0.810270136617302   0.189779622909461   0.110864326149204   1.0000000
N2   N   0.811203087053736   0.331839546375085   0.110882751724024   1.0000000
N2   N   0.817199674490950   0.475726530997511   0.111465038133109   1.0000000
N2   N   0.816527886707283   0.625624344635824   0.111453849620283   1.0000000
N2   N   0.813634605250909   0.767561595994836   0.111334394453637   1.0000000
S2   S   0.518419108016369   0.474850020406916   0.111502556920173   1.0000000
S2   S   0.670718395363575   0.474850020406916   0.111502556920173   1.0000000


