data_1
_audit_creation_method   'vasp2cif'
_cell_length_a    14.93631414619966
_cell_length_b    14.936314146199727
_cell_length_c    13.341276283792837
_cell_angle_alpha    90.0
_cell_angle_beta    90.0
_cell_angle_gamma    119.99999999999984

_symmetry_space_group_name_H-M    'P 1'
loop_
_atom_site_label
_atom_site_type_symbol
_atom_site_fract_x
_atom_site_fract_y
_atom_site_fract_z
_atom_site_occupancy
Ga2   Ga   0.555555555555557   0.444444444444443   0.375000000000000   1.0000000
N2   N   0.111101924419887   0.055551152525173   0.124990421417101   1.0000000
N2   N   0.611114847473043   0.555563028279414   0.124598411966182   1.0000000
N2   N   0.444444475228426   0.055556123273547   0.125037441095027   1.0000000
N2   N   0.944443876726454   0.555555524771575   0.125037441095027   1.0000000
N2   N   0.777781097881850   0.055557215607593   0.124963293371676   1.0000000
N2   N   0.111111449941063   0.722222391637196   0.624988061651001   1.0000000
N2   N   0.444444475228426   0.722221685288215   0.624962558904974   1.0000000
N2   N   0.277765314871328   0.222213657067010   0.625047440887247   1.0000000
N2   N   0.777786342932990   0.722234685128672   0.625047440887247   1.0000000
N2   N   0.611115008862353   0.222213657067010   0.625047440887247   1.0000000
N2   N   0.944442784392407   0.222218902118150   0.625036706628324   1.0000000
N2   N   0.277777608362804   0.722222391637196   0.125011938348999   1.0000000
N2   N   0.111098499578638   0.222215916455983   0.124968805802818   1.0000000
N2   N   0.444448107709726   0.222229548752788   0.125009195314061   1.0000000
N2   N   0.611115008862353   0.722234685128672   0.124952559112753   1.0000000
N2   N   0.944443876726454   0.722221685288215   0.125037441095027   1.0000000
N2   N   0.777784083544017   0.222215916455983   0.124968805802818   1.0000000
N2   N   0.111110656087255   0.888889343912745   0.624986044246712   1.0000000
N2   N   0.444445354492161   0.888889343912745   0.624986044246712   1.0000000
N2   N   0.277765314871328   0.388884991137647   0.625047440887247   1.0000000
N2   N   0.611114847473043   0.388885152526957   0.625401588033817   1.0000000
N2   N   0.777784083544017   0.888901500421362   0.625031194197182   1.0000000
N2   N   0.944448847474827   0.388884105228042   0.625009578582899   1.0000000
N2   N   0.111101924419887   0.388884105228042   0.124990421417101   1.0000000
N2   N   0.277777608362804   0.888888550058937   0.125011938348999   1.0000000
N2   N   0.611115894771958   0.888898075580113   0.124990421417101   1.0000000
N2   N   0.444436971720586   0.388885152526957   0.124598411966182   1.0000000
N2   N   0.944448847474827   0.888898075580113   0.124990421417101   1.0000000
N2   N   0.777786342932990   0.388884991137647   0.124952559112753   1.0000000
N2   N   0.277778314711786   0.555555524771575   0.624962558904974   1.0000000
N2   N   0.111101924419887   0.055551152525173   0.625009578582899   1.0000000
N2   N   0.611114847473043   0.555563028279414   0.625401588033817   1.0000000
N2   N   0.444444475228426   0.055556123273547   0.624962558904974   1.0000000
N2   N   0.944443876726454   0.555555524771575   0.624962558904974   1.0000000
N2   N   0.111110656087255   0.555554645507839   0.125013955753288   1.0000000
N2   N   0.777781097881850   0.055557215607593   0.625036706628324   1.0000000
N2   N   0.277778314711786   0.055556123273547   0.125037441095027   1.0000000
N2   N   0.444448107709726   0.555551892290274   0.125009195314061   1.0000000
N2   N   0.777770451247212   0.555551892290274   0.125009195314061   1.0000000
N2   N   0.611115894771958   0.055551152525173   0.124990421417101   1.0000000
N2   N   0.444448107709726   0.555551892290274   0.624990804685939   1.0000000
N2   N   0.944442784392407   0.055557215607593   0.124963293371676   1.0000000
N2   N   0.277777608362804   0.722222391637196   0.624988061651001   1.0000000
N2   N   0.111098499578638   0.222215916455983   0.625031194197182   1.0000000
N2   N   0.444448107709726   0.222229548752788   0.624990804685939   1.0000000
N2   N   0.611115008862353   0.722234685128672   0.625047440887247   1.0000000
N2   N   0.944443876726454   0.722221685288215   0.624962558904974   1.0000000
N2   N   0.777784083544017   0.222215916455983   0.625031194197182   1.0000000
N2   N   0.111111449941063   0.722222391637196   0.125011938348999   1.0000000
N2   N   0.444444475228426   0.722221685288215   0.125037441095027   1.0000000
N2   N   0.277765314871328   0.222213657067010   0.124952559112753   1.0000000
N2   N   0.777786342932990   0.722234685128672   0.124952559112753   1.0000000
N2   N   0.611115008862353   0.222213657067010   0.124952559112753   1.0000000
N2   N   0.944442784392407   0.222218902118150   0.124963293371676   1.0000000
N2   N   0.111101924419887   0.388884105228042   0.625009578582899   1.0000000
N2   N   0.277777608362804   0.888888550058937   0.624988061651001   1.0000000
N2   N   0.611115894771958   0.888898075580113   0.625009578582899   1.0000000
N2   N   0.444436971720586   0.388885152526957   0.625401588033817   1.0000000
N2   N   0.944448847474827   0.888898075580113   0.625009578582899   1.0000000
N2   N   0.111110656087255   0.888889343912745   0.125013955753288   1.0000000
N2   N   0.777786342932990   0.388884991137647   0.625047440887247   1.0000000
N2   N   0.444445354492161   0.888889343912745   0.125013955753288   1.0000000
N2   N   0.277765314871328   0.388884991137647   0.124952559112753   1.0000000
N2   N   0.277778314711786   0.555555524771575   0.125037441095027   1.0000000
N2   N   0.611114847473043   0.388885152526957   0.124598411966182   1.0000000
N2   N   0.777784083544017   0.888901500421362   0.124968805802818   1.0000000
N2   N   0.944448847474827   0.388884105228042   0.124990421417101   1.0000000
N2   N   0.111110656087255   0.555554645507839   0.624986044246712   1.0000000
N2   N   0.277778314711786   0.055556123273547   0.624962558904974   1.0000000
N2   N   0.777770451247212   0.555551892290274   0.624990804685939   1.0000000
N2   N   0.611115894771958   0.055551152525173   0.625009578582899   1.0000000
N2   N   0.944442784392407   0.055557215607593   0.625036706628324   1.0000000
N2   N   0.054157282589804   0.110176903381698   0.375000000000000   1.0000000
N2   N   0.556729780756937   0.622576329472083   0.375000000000000   1.0000000
N2   N   0.387871984010030   0.109077301353402   0.375000000000000   1.0000000
N2   N   0.890922698646598   0.612128015989970   0.375000000000000   1.0000000
N2   N   0.722686287458559   0.110176903381698   0.375000000000000   1.0000000
N2   N   0.055554294448450   0.777777993164326   0.875000000000000   1.0000000
N2   N   0.388890365382540   0.777777993164326   0.875000000000000   1.0000000
N2   N   0.222222016097188   0.277777674715262   0.875000000000000   1.0000000
N2   N   0.722222325284738   0.777777983902812   0.875000000000000   1.0000000
N2   N   0.555555220644069   0.277777551619459   0.875000000000000   1.0000000
N2   N   0.888890343563328   0.277778751097404   0.875000000000000   1.0000000
N2   N   0.222222222222221   0.777777777777779   0.375000000000000   1.0000000
N2   N   0.054157282589804   0.277313712541441   0.375000000000000   1.0000000
N2   N   0.377423670527917   0.267486784618190   0.375000000000000   1.0000000
N2   N   0.555228205475152   0.782316809040870   0.375000000000000   1.0000000
N2   N   0.893755270232383   0.782316809040870   0.375000000000000   1.0000000
N2   N   0.724519054600607   0.275480945399394   0.375000000000000   1.0000000
N2   N   0.055555798620219   0.944444201379781   0.875000000000000   1.0000000
N2   N   0.388890365382540   0.944445705551550   0.875000000000000   1.0000000
N2   N   0.222221174066289   0.444444870957015   0.875000000000000   1.0000000
N2   N   0.555555555555557   0.444444444444443   0.875000000000000   1.0000000
N2   N   0.722221248902596   0.944444925799260   0.875000000000000   1.0000000
N2   N   0.888890363557390   0.444444870957015   0.875000000000000   1.0000000
N2   N   0.055795727771118   0.444924788875565   0.375000000000000   1.0000000
N2   N   0.221909474384664   0.943462987014252   0.375000000000000   1.0000000
N2   N   0.555075211124434   0.944204272228882   0.375000000000000   1.0000000
N2   N   0.377423670527917   0.443270219243063   0.375000000000000   1.0000000
N2   N   0.889823096618302   0.945842717410196   0.375000000000000   1.0000000
N2   N   0.732513215381810   0.443270219243063   0.375000000000000   1.0000000
N2   N   0.222222006835674   0.611109634617459   0.875000000000000   1.0000000
N2   N   0.055555074200740   0.111109656436672   0.875000000000000   1.0000000
N2   N   0.555555220644069   0.611111002357946   0.875000000000000   1.0000000
N2   N   0.388889903917041   0.111113141167425   0.875000000000000   1.0000000
N2   N   0.888886858832575   0.611110096082958   0.875000000000000   1.0000000
N2   N   0.056537012985748   0.611779820703748   0.375000000000000   1.0000000
N2   N   0.722221248902596   0.111109656436672   0.875000000000000   1.0000000
N2   N   0.217683190959130   0.106244729767617   0.375000000000000   1.0000000
N2   N   0.387871984010030   0.612128015989970   0.375000000000000   1.0000000
N2   N   0.732513215381810   0.622576329472083   0.375000000000000   1.0000000
N2   N   0.555228205475152   0.106244729767617   0.375000000000000   1.0000000
N2   N   0.388889903917041   0.611110096082958   0.875000000000000   1.0000000
N2   N   0.888888888888886   0.111111111111114   0.375000000000000   1.0000000
N2   N   0.222222222222221   0.777777777777779   0.875000000000000   1.0000000
N2   N   0.055555074200740   0.277778751097404   0.875000000000000   1.0000000
N2   N   0.388888997642054   0.277777551619459   0.875000000000000   1.0000000
N2   N   0.555555129042985   0.777778825933711   0.875000000000000   1.0000000
N2   N   0.888890363557390   0.777778825933711   0.875000000000000   1.0000000
N2   N   0.722222325284738   0.277777674715262   0.875000000000000   1.0000000
N2   N   0.056537012985748   0.778090525615335   0.375000000000000   1.0000000
N2   N   0.388220179296251   0.778090525615335   0.375000000000000   1.0000000
N2   N   0.217628557465451   0.275480945399394   0.375000000000000   1.0000000
N2   N   0.724519054600607   0.782371442534548   0.375000000000000   1.0000000
N2   N   0.556729780756937   0.267486784618190   0.375000000000000   1.0000000
N2   N   0.889823096618302   0.277313712541441   0.375000000000000   1.0000000
N2   N   0.055555798620219   0.444444930573767   0.875000000000000   1.0000000
N2   N   0.222222006835674   0.944445705551550   0.875000000000000   1.0000000
N2   N   0.555555069426233   0.944444201379781   0.875000000000000   1.0000000
N2   N   0.388888997642054   0.444444779355932   0.875000000000000   1.0000000
N2   N   0.888890343563328   0.944444925799260   0.875000000000000   1.0000000
N2   N   0.055795727771118   0.944204272228882   0.375000000000000   1.0000000
N2   N   0.722222448380541   0.444444779355932   0.875000000000000   1.0000000
N2   N   0.388220179296251   0.943462987014252   0.375000000000000   1.0000000
N2   N   0.217683190959130   0.444771794524849   0.375000000000000   1.0000000
N2   N   0.221909474384664   0.611779820703748   0.375000000000000   1.0000000
N2   N   0.722686287458559   0.945842717410196   0.375000000000000   1.0000000
N2   N   0.893755270232383   0.444771794524849   0.375000000000000   1.0000000
N2   N   0.055554294448450   0.611109634617459   0.875000000000000   1.0000000
N2   N   0.222221174066289   0.111109636442610   0.875000000000000   1.0000000
N2   N   0.722222448380541   0.611111002357946   0.875000000000000   1.0000000
N2   N   0.555555129042985   0.111109636442610   0.875000000000000   1.0000000
N2   N   0.888888888888886   0.111111111111114   0.875000000000000   1.0000000
B2   B   0.108540822129928   0.053575638943292   0.375000000000000   1.0000000
B2   B   0.625063318081994   0.583459969497316   0.375000000000000   1.0000000
B2   B   0.444083571127039   0.053845268849746   0.375000000000000   1.0000000
B2   B   0.946154731150254   0.555916428872961   0.375000000000000   1.0000000
B2   B   0.778399105175321   0.055866219254328   0.375000000000000   1.0000000
B2   B   0.111108706943673   0.722221020138501   0.875000000000000   1.0000000
B2   B   0.444448873454172   0.722223764043017   0.875000000000000   1.0000000
B2   B   0.277773529704551   0.222221666011001   0.875000000000000   1.0000000
B2   B   0.777778333989000   0.722226470295449   0.875000000000000   1.0000000
B2   B   0.611114802973122   0.222221666011001   0.875000000000000   1.0000000
B2   B   0.944444004197031   0.222221341727398   0.875000000000000   1.0000000
B2   B   0.277500614554071   0.722499385445930   0.375000000000000   1.0000000
B2   B   0.108093289562694   0.220713311448011   0.375000000000000   1.0000000
B2   B   0.443186442947867   0.219706219229069   0.375000000000000   1.0000000
B2   B   0.612766262117918   0.730975453600110   0.375000000000000   1.0000000
B2   B   0.946154731150254   0.723571635610629   0.375000000000000   1.0000000
B2   B   0.779286688551989   0.220713311448011   0.375000000000000   1.0000000
B2   B   0.111108460000138   0.888891539999862   0.875000000000000   1.0000000
B2   B   0.444449746666396   0.888891539999862   0.875000000000000   1.0000000
B2   B   0.277773529704551   0.388885197026879   0.875000000000000   1.0000000
B2   B   0.611117207143731   0.388882792856270   0.875000000000000   1.0000000
B2   B   0.777779110135219   0.888891553603767   0.875000000000000   1.0000000
B2   B   0.944443569203079   0.388885002635557   0.875000000000000   1.0000000
B2   B   0.108540822129928   0.388298516519965   0.375000000000000   1.0000000
B2   B   0.277500614554071   0.888334562441471   0.375000000000000   1.0000000
B2   B   0.611701483480035   0.891459177870072   0.375000000000000   1.0000000
B2   B   0.416540030502684   0.374936681918006   0.375000000000000   1.0000000
B2   B   0.946424361056708   0.891459177870072   0.375000000000000   1.0000000
B2   B   0.784875858148864   0.387233737882082   0.375000000000000   1.0000000
B2   B   0.277776235956983   0.555551126545828   0.875000000000000   1.0000000
B2   B   0.111108100099149   0.055556430796921   0.875000000000000   1.0000000
B2   B   0.611117207143731   0.555567747620789   0.875000000000000   1.0000000
B2   B   0.444448873454172   0.055558442744491   0.875000000000000   1.0000000
B2   B   0.944441557255509   0.555551126545828   0.875000000000000   1.0000000
B2   B   0.111270724184935   0.555874781703199   0.375000000000000   1.0000000
B2   B   0.777778658272602   0.055555995802969   0.875000000000000   1.0000000
B2   B   0.276428364389372   0.053845268849746   0.375000000000000   1.0000000
B2   B   0.443186442947867   0.556813557052133   0.375000000000000   1.0000000
B2   B   0.780293780770931   0.556813557052133   0.375000000000000   1.0000000
B2   B   0.611701483480035   0.053575638943292   0.375000000000000   1.0000000
B2   B   0.444445668157247   0.555554331842753   0.875000000000000   1.0000000
B2   B   0.944133780745672   0.055866219254328   0.375000000000000   1.0000000
B2   B   0.277778979861499   0.722221020138501   0.875000000000000   1.0000000
B2   B   0.111108446396233   0.222220889864781   0.875000000000000   1.0000000
B2   B   0.444445668157247   0.222224669647830   0.875000000000000   1.0000000
B2   B   0.611114802973122   0.722226470295449   0.875000000000000   1.0000000
B2   B   0.944441557255509   0.722223764043017   0.875000000000000   1.0000000
B2   B   0.777779110135219   0.222220889864781   0.875000000000000   1.0000000
B2   B   0.111665437558530   0.722499385445930   0.375000000000000   1.0000000
B2   B   0.444083571127039   0.723571635610629   0.375000000000000   1.0000000
B2   B   0.269024546399890   0.215124141851136   0.375000000000000   1.0000000
B2   B   0.784875858148864   0.730975453600110   0.375000000000000   1.0000000
B2   B   0.612766262117918   0.215124141851136   0.375000000000000   1.0000000
B2   B   0.944133780745672   0.221600894824679   0.375000000000000   1.0000000
B2   B   0.111108100099149   0.388885002635557   0.875000000000000   1.0000000
B2   B   0.277778979861499   0.888891293056327   0.875000000000000   1.0000000
B2   B   0.611114997364443   0.888891899900850   0.875000000000000   1.0000000
B2   B   0.444432252379211   0.388882792856270   0.875000000000000   1.0000000
B2   B   0.944443569203079   0.888891899900850   0.875000000000000   1.0000000
B2   B   0.111270724184935   0.888729275815065   0.375000000000000   1.0000000
B2   B   0.777778333989000   0.388885197026879   0.875000000000000   1.0000000
B2   B   0.444125218296801   0.888729275815065   0.375000000000000   1.0000000
B2   B   0.269024546399890   0.387233737882082   0.375000000000000   1.0000000
B2   B   0.276428364389372   0.555916428872961   0.375000000000000   1.0000000
B2   B   0.625063318081994   0.374936681918006   0.375000000000000   1.0000000
B2   B   0.779286688551989   0.891906710437306   0.375000000000000   1.0000000
B2   B   0.946424361056708   0.388298516519965   0.375000000000000   1.0000000
B2   B   0.111108460000138   0.555550253333604   0.875000000000000   1.0000000
B2   B   0.277776235956983   0.055558442744491   0.875000000000000   1.0000000
B2   B   0.777775330352170   0.555554331842753   0.875000000000000   1.0000000
B2   B   0.611114997364443   0.055556430796921   0.875000000000000   1.0000000
B2   B   0.944444004197031   0.055555995802969   0.875000000000000   1.0000000
B2   B   0.055544052984345   0.111111053223703   0.124997704999243   1.0000000
B2   B   0.555548334138880   0.611150367947073   0.124913129741443   1.0000000
B2   B   0.388883364065049   0.111100061463441   0.125017780861150   1.0000000
B2   B   0.888899938536559   0.611116635934951   0.125017780861150   1.0000000
B2   B   0.722233666906022   0.111111053223703   0.124997704999243   1.0000000
B2   B   0.055555106029496   0.777782868180861   0.624995160546045   1.0000000
B2   B   0.388894428818029   0.777782868180861   0.624995160546045   1.0000000
B2   B   0.222199581637499   0.277766457485418   0.625011204853276   1.0000000
B2   B   0.722233542514583   0.777800418362501   0.625011204853276   1.0000000
B2   B   0.555548334138880   0.277731299525142   0.625086870258557   1.0000000
B2   B   0.888888946776296   0.277766333093978   0.625002295000758   1.0000000
B2   B   0.222222222222221   0.777777777777779   0.124995370608334   1.0000000
B2   B   0.055544052984345   0.277766333093978   0.124997704999243   1.0000000
B2   B   0.388849632052926   0.277731299525142   0.124913129741443   1.0000000
B2   B   0.555569008148986   0.777793988392575   0.125001640244829   1.0000000
B2   B   0.888891646910254   0.777793988392575   0.125001640244829   1.0000000
B2   B   0.722233542514583   0.277766457485418   0.124988795146723   1.0000000
B2   B   0.055547970985785   0.944452029014215   0.625002324772169   1.0000000
B2   B   0.388894428818029   0.944444893970504   0.624995160546045   1.0000000
B2   B   0.222206011607425   0.444430991851014   0.624998359755171   1.0000000
B2   B   0.555555555555557   0.444444444444443   0.625706287313442   1.0000000
B2   B   0.722233666906022   0.944455947015655   0.625002295000758   1.0000000
B2   B   0.888891646910254   0.444430991851014   0.624998359755171   1.0000000
B2   B   0.055547970985785   0.444429275304899   0.124997675227831   1.0000000
B2   B   0.222217131819139   0.944444893970504   0.125004839453955   1.0000000
B2   B   0.555570724695101   0.944452029014215   0.124997675227831   1.0000000
B2   B   0.388849632052926   0.444451665861120   0.124913129741443   1.0000000
B2   B   0.888888946776296   0.944455947015655   0.124997704999243   1.0000000
B2   B   0.722268700474858   0.444451665861120   0.124913129741443   1.0000000
B2   B   0.222217131819139   0.611105571181971   0.624995160546045   1.0000000
B2   B   0.055544052984345   0.111111053223703   0.625002295000758   1.0000000
B2   B   0.555548334138880   0.611150367947073   0.625086870258557   1.0000000
B2   B   0.388883364065049   0.111100061463441   0.624982219138850   1.0000000
B2   B   0.888899938536559   0.611116635934951   0.624982219138850   1.0000000
B2   B   0.055555106029496   0.611105571181971   0.125004839453955   1.0000000
B2   B   0.722233666906022   0.111111053223703   0.625002295000758   1.0000000
B2   B   0.222206011607425   0.111108353089746   0.125001640244829   1.0000000
B2   B   0.388883364065049   0.611116635934951   0.125017780861150   1.0000000
B2   B   0.722268700474858   0.611150367947073   0.124913129741443   1.0000000
B2   B   0.555569008148986   0.111108353089746   0.125001640244829   1.0000000
B2   B   0.388883364065049   0.611116635934951   0.624982219138850   1.0000000
B2   B   0.888888888888886   0.111111111111114   0.124993075405597   1.0000000
B2   B   0.222222222222221   0.777777777777779   0.625004629391666   1.0000000
B2   B   0.055544052984345   0.277766333093978   0.625002295000758   1.0000000
B2   B   0.388849632052926   0.277731299525142   0.625086870258557   1.0000000
B2   B   0.555569008148986   0.777793988392575   0.624998359755171   1.0000000
B2   B   0.888891646910254   0.777793988392575   0.624998359755171   1.0000000
B2   B   0.722233542514583   0.277766457485418   0.625011204853276   1.0000000
B2   B   0.055555106029496   0.777782868180861   0.125004839453955   1.0000000
B2   B   0.388894428818029   0.777782868180861   0.125004839453955   1.0000000
B2   B   0.222199581637499   0.277766457485418   0.124988795146723   1.0000000
B2   B   0.722233542514583   0.777800418362501   0.124988795146723   1.0000000
B2   B   0.555548334138880   0.277731299525142   0.124913129741443   1.0000000
B2   B   0.888888946776296   0.277766333093978   0.124997704999243   1.0000000
B2   B   0.055547970985785   0.444429275304899   0.625002324772169   1.0000000
B2   B   0.222217131819139   0.944444893970504   0.624995160546045   1.0000000
B2   B   0.555570724695101   0.944452029014215   0.625002324772169   1.0000000
B2   B   0.388849632052926   0.444451665861120   0.625086870258557   1.0000000
B2   B   0.888888946776296   0.944455947015655   0.625002295000758   1.0000000
B2   B   0.055547970985785   0.944452029014215   0.124997675227831   1.0000000
B2   B   0.722268700474858   0.444451665861120   0.625086870258557   1.0000000
B2   B   0.388894428818029   0.944444893970504   0.125004839453955   1.0000000
B2   B   0.222206011607425   0.444430991851014   0.125001640244829   1.0000000
B2   B   0.222217131819139   0.611105571181971   0.125004839453955   1.0000000
B2   B   0.555555555555557   0.444444444444443   0.124293712686558   1.0000000
B2   B   0.722233666906022   0.944455947015655   0.124997704999243   1.0000000
B2   B   0.888891646910254   0.444430991851014   0.125001640244829   1.0000000
B2   B   0.055555106029496   0.611105571181971   0.624995160546045   1.0000000
B2   B   0.222206011607425   0.111108353089746   0.624998359755171   1.0000000
B2   B   0.722268700474858   0.611150367947073   0.625086870258557   1.0000000
B2   B   0.555569008148986   0.111108353089746   0.624998359755171   1.0000000
B2   B   0.888888888888886   0.111111111111114   0.625006924594403   1.0000000


