data_1
_audit_creation_method   'vasp2cif'
_cell_length_a    17.52789999999977
_cell_length_b    17.52789999999977
_cell_length_c    15.0
_cell_angle_alpha    90.0
_cell_angle_beta    90.0
_cell_angle_gamma    119.99999999999916

_symmetry_space_group_name_H-M    'P 1'
loop_
_atom_site_label
_atom_site_type_symbol
_atom_site_fract_x
_atom_site_fract_y
_atom_site_fract_z
_atom_site_occupancy
Sn2   Sn   0.495276458524415   0.504724943392571   0.110899654416019   1.0000000
B2   B   0.906410506926566   0.953670384789560   0.111009436922398   1.0000000
B2   B   0.904453558502440   0.095548462693556   0.111008030548732   1.0000000
B2   B   0.903939900251205   0.238225657481209   0.111013462323715   1.0000000
B2   B   0.904375050583408   0.381111454646920   0.110966640515616   1.0000000
B2   B   0.906314235817278   0.524255065378849   0.111053850416855   1.0000000
B2   B   0.908043448044414   0.667832412414990   0.111075565055016   1.0000000
B2   B   0.908566697301416   0.811749573877362   0.111048384143607   1.0000000
B2   B   0.048352577028907   0.951649444167084   0.111036011427532   1.0000000
B2   B   0.046331636406538   0.093591514269442   0.111009436922398   1.0000000
B2   B   0.045827925505071   0.236952113486836   0.110979511016461   1.0000000
B2   B   0.046427783454570   0.380392642834621   0.111010842445274   1.0000000
B2   B   0.048033039905807   0.523501523382487   0.111028201966453   1.0000000
B2   B   0.049425876232483   0.666444563368173   0.111064936032723   1.0000000
B2   B   0.049485281128945   0.809284225739631   0.111049746756902   1.0000000
B2   B   0.190717795456196   0.950516740067044   0.111049746756902   1.0000000
B2   B   0.188252447318602   0.091435323894636   0.111048384143607   1.0000000
B2   B   0.185938637042379   0.233206830366366   0.110993868915495   1.0000000
B2   B   0.187466261809229   0.378800327227251   0.111063330484129   1.0000000
B2   B   0.189794218034949   0.522777501910439   0.111103007072980   1.0000000
B2   B   0.191761343924767   0.665768710680445   0.111050343275911   1.0000000
B2   B   0.191625397621389   0.808376623574570   0.111006712011192   1.0000000
B2   B   0.333557457828847   0.950576144963597   0.111064936032723   1.0000000
B2   B   0.332169608781952   0.091958573151459   0.111075565055016   1.0000000
B2   B   0.327452278430535   0.230164866348143   0.111010177869959   1.0000000
B2   B   0.323998214392934   0.372832636968987   0.111026774485650   1.0000000
B2   B   0.331078292965890   0.521136165067235   0.111079125221098   1.0000000
B2   B   0.334735948431416   0.665266072765714   0.111116308584101   1.0000000
B2   B   0.334233310516597   0.808240677271190   0.111050343275911   1.0000000
B2   B   0.476500497814538   0.951968981290287   0.111028201966453   1.0000000
B2   B   0.475746955818197   0.093687785378750   0.111053850416855   1.0000000
B2   B   0.474311447721632   0.234347595123102   0.111006596895397   1.0000000
B2   B   0.464688281787998   0.364849716730258   0.111073096147974   1.0000000
B2   B   0.478865856129799   0.668923728231165   0.111079125221098   1.0000000
B2   B   0.477224519286515   0.810207803161061   0.111103007072980   1.0000000
B2   B   0.619609378361381   0.953574237741404   0.111010842445274   1.0000000
B2   B   0.618890566548949   0.095626970612603   0.110966640515616   1.0000000
B2   B   0.618438054723160   0.238124267663623   0.110977532520123   1.0000000
B2   B   0.618506790517255   0.381495230678800   0.110952933786066   1.0000000
B2   B   0.635152304465803   0.535313739409098   0.111073096147974   1.0000000
B2   B   0.627169384227060   0.676003806803920   0.111026774485650   1.0000000
B2   B   0.621201693968772   0.812535759386737   0.111063330484129   1.0000000
B2   B   0.763049907709154   0.954174095691004   0.110979511016461   1.0000000
B2   B   0.761776363714843   0.096062120944906   0.111013462323715   1.0000000
B2   B   0.761422346970124   0.238579674225863   0.110997592785289   1.0000000
B2   B   0.761877753532289   0.381563966472852   0.110977532520123   1.0000000
B2   B   0.765654426072935   0.525690573475273   0.111006596895397   1.0000000
B2   B   0.769837154847897   0.672549742766352   0.111010177869959   1.0000000
B2   B   0.766795190829581   0.814063384153675   0.110993868915495   1.0000000
N2   N   0.954137513126677   0.905910251331918   0.111018446739076   1.0000000
N2   N   0.952135881456513   0.047865520461461   0.110998190714615   1.0000000
N2   N   0.951178423840636   0.190328660544802   0.110985171029206   1.0000000
N2   N   0.951376974266862   0.333218032592747   0.110967404654070   1.0000000
N2   N   0.952803960548168   0.476162972136992   0.110988714654236   1.0000000
N2   N   0.954303925821014   0.619285412759216   0.111076052169996   1.0000000
N2   N   0.954785081845630   0.762674511738293   0.111061363458535   1.0000000
N2   N   0.096020953293233   0.903980448624814   0.111018711881723   1.0000000
N2   N   0.094091150586136   0.045863888791378   0.111018446739076   1.0000000
N2   N   0.092160183831686   0.187881650993118   0.110956419110436   1.0000000
N2   N   0.092905206978123   0.331930315795143   0.110999959947095   1.0000000
N2   N   0.094672472852175   0.475464144398942   0.111029465084697   1.0000000
N2   N   0.096430670614974   0.618544968197135   0.111030051912908   1.0000000
N2   N   0.096666514624756   0.761369822330538   0.111014440086838   1.0000000
N2   N   0.238631579587446   0.903334887293199   0.111014440086838   1.0000000
N2   N   0.237326890179679   0.045216320072423   0.111061363458535   1.0000000
N2   N   0.233796367741371   0.185446210621645   0.110994114805355   1.0000000
N2   N   0.231290033653824   0.327263564621186   0.111020315227513   1.0000000
N2   N   0.235799277106678   0.474226517826961   0.111096067691704   1.0000000
N2   N   0.239093167664839   0.618026037837401   0.111086842384371   1.0000000
N2   N   0.239141091140457   0.760860310777637   0.111001352004814   1.0000000
N2   N   0.381456433720966   0.903570731303004   0.111030051912908   1.0000000
N2   N   0.380715989158642   0.045697476097077   0.111076052169996   1.0000000
N2   N   0.379058851510926   0.186863893272733   0.111014240247009   1.0000000
N2   N   0.372698546085133   0.324205987816982   0.111012963740862   1.0000000
N2   N   0.369061565425160   0.465714839564251   0.110975476241483   1.0000000
N2   N   0.382595987300206   0.617405414617848   0.111078265063634   1.0000000
N2   N   0.381975364080521   0.760908234253107   0.111086842384371   1.0000000
N2   N   0.524537257518054   0.905328929065763   0.111029465084697   1.0000000
N2   N   0.523838429780030   0.047197441369798   0.110988714654236   1.0000000
N2   N   0.523166372410038   0.189025292578567   0.111002745055536   1.0000000
N2   N   0.521847334096114   0.330421574799762   0.110958142883915   1.0000000
N2   N   0.534286562352733   0.630939836492897   0.110975476241483   1.0000000
N2   N   0.525774884090055   0.764202124811391   0.111096067691704   1.0000000
N2   N   0.668071086121820   0.907096194939826   0.110999959947095   1.0000000
N2   N   0.666783369324342   0.048624427651263   0.110967404654070   1.0000000
N2   N   0.666209167831045   0.191058524626278   0.110955895445475   1.0000000
N2   N   0.665870812308790   0.334130589608201   0.110953288613735   1.0000000
N2   N   0.669579827117286   0.478154067820864   0.110958142883915   1.0000000
N2   N   0.675795414100066   0.627302855832811   0.111012963740862   1.0000000
N2   N   0.672737837295749   0.768711368264187   0.111020315227513   1.0000000
N2   N   0.812119750924902   0.907841218086214   0.110956419110429   1.0000000
N2   N   0.809672741373139   0.048822978077368   0.110985171029206   1.0000000
N2   N   0.808915999434764   0.191085402483212   0.111011348376539   1.0000000
N2   N   0.808942877291811   0.333792234086024   0.110955895445475   1.0000000
N2   N   0.810976109339474   0.476835029507066   0.111002745055536   1.0000000
N2   N   0.813137508645164   0.620942550407000   0.111014240247009   1.0000000
N2   N   0.814555191296352   0.766205034176611   0.110994114805355   1.0000000


