data_1
_audit_creation_method   'vasp2cif'
_cell_length_a    14.93631414619966
_cell_length_b    14.936314146199727
_cell_length_c    13.341276283792837
_cell_angle_alpha    90.0
_cell_angle_beta    90.0
_cell_angle_gamma    119.99999999999984

_symmetry_space_group_name_H-M    'P 1'
loop_
_atom_site_label
_atom_site_type_symbol
_atom_site_fract_x
_atom_site_fract_y
_atom_site_fract_z
_atom_site_occupancy
C2   C   0.390719420828386   0.437575984643501   0.375000000000000   1.0000000
C2   C   0.442872663080208   0.377526061482563   0.375000000000000   1.0000000
C2   C   0.549504705526340   0.411238856656596   0.375000000000000   1.0000000
N2   N   0.111075130088376   0.055596683254656   0.125105033509718   1.0000000
N2   N   0.611119135706597   0.555589782223005   0.124333198908723   1.0000000
N2   N   0.444411912155121   0.055621583315453   0.125046295865665   1.0000000
N2   N   0.944453674910378   0.555577863329188   0.125009996130123   1.0000000
N2   N   0.777696144223353   0.055547957605108   0.125090491545146   1.0000000
N2   N   0.111101367346563   0.722248737245427   0.624976594294550   1.0000000
N2   N   0.444401825916424   0.722237667391767   0.625030382198190   1.0000000
N2   N   0.277764581401867   0.222302498827890   0.624560858581030   1.0000000
N2   N   0.777768234328842   0.722253825164126   0.625035866757959   1.0000000
N2   N   0.611102340919521   0.222291173959376   0.625046074398077   1.0000000
N2   N   0.944375686957383   0.222202723231130   0.624985274384221   1.0000000
N2   N   0.277746449662271   0.722236176554061   0.125039164524780   1.0000000
N2   N   0.111034304318551   0.222221127321494   0.125003212969880   1.0000000
N2   N   0.444427732110273   0.222324034243301   0.125037141059289   1.0000000
N2   N   0.611056597245074   0.722201510220595   0.125039351290205   1.0000000
N2   N   0.944452502835623   0.722266046530215   0.125043593818576   1.0000000
N2   N   0.777738153060828   0.222231379246685   0.125077133348957   1.0000000
N2   N   0.111103062829225   0.888944013596871   0.624919208403372   1.0000000
N2   N   0.444397122188209   0.888922289493417   0.624961208056421   1.0000000
N2   N   0.277674569128211   0.388873823402953   0.625192861340794   1.0000000
N2   N   0.611194104938687   0.388951070327393   0.626343467266758   1.0000000
N2   N   0.777714646296008   0.888884769199322   0.624874948982033   1.0000000
N2   N   0.944426916307892   0.388885778317699   0.624956204228221   1.0000000
N2   N   0.111058091211761   0.388874856066684   0.125041868677544   1.0000000
N2   N   0.277753553230241   0.888940539746438   0.125057736327029   1.0000000
N2   N   0.611036959922086   0.888891974658201   0.125118698106330   1.0000000
N2   N   0.444436579808456   0.388938635559705   0.124986162665172   1.0000000
N2   N   0.944419396114740   0.888923123968128   0.125066662828352   1.0000000
N2   N   0.777809947231464   0.388910452298247   0.124824724339563   1.0000000
N2   N   0.277740419306459   0.555549305855796   0.624933915491239   1.0000000
N2   N   0.111075130088376   0.055596683254656   0.624894966490289   1.0000000
N2   N   0.611119135706597   0.555589782223005   0.625666801091285   1.0000000
N2   N   0.444411912155121   0.055621583315453   0.624953704134327   1.0000000
N2   N   0.944453674910378   0.555577863329188   0.624990003869906   1.0000000
N2   N   0.111090231115619   0.555553283070811   0.125052048676210   1.0000000
N2   N   0.777696144223353   0.055547957605108   0.624909508454854   1.0000000
N2   N   0.277767467844614   0.055646427606136   0.125207688558440   1.0000000
N2   N   0.444427125355735   0.555616979692864   0.124395640620231   1.0000000
N2   N   0.777812889303419   0.555617633563974   0.124702075312231   1.0000000
N2   N   0.611049183073960   0.055592450683601   0.125120527546178   1.0000000
N2   N   0.444427125355735   0.555616979692864   0.625604359379775   1.0000000
N2   N   0.944376440772432   0.055554531906372   0.125036031294272   1.0000000
N2   N   0.277746449662271   0.722236176554061   0.624960835475220   1.0000000
N2   N   0.111034304318551   0.222221127321494   0.624996787030134   1.0000000
N2   N   0.444427732110273   0.222324034243301   0.624962858940704   1.0000000
N2   N   0.611056597245074   0.722201510220595   0.624960648709817   1.0000000
N2   N   0.944452502835623   0.722266046530215   0.624956406181438   1.0000000
N2   N   0.777738153060821   0.222231379246685   0.624922866651050   1.0000000
N2   N   0.111101367346563   0.722248737245427   0.125023405705464   1.0000000
N2   N   0.444401825916424   0.722237667391767   0.124969617801811   1.0000000
N2   N   0.277764581401867   0.222302498827890   0.125439141418977   1.0000000
N2   N   0.777768234328842   0.722253825164126   0.124964133242049   1.0000000
N2   N   0.611102340919521   0.222291173959376   0.124953925601916   1.0000000
N2   N   0.944375686957383   0.222202723231130   0.125014725615793   1.0000000
N2   N   0.111058091211761   0.388874856066684   0.624958131322478   1.0000000
N2   N   0.277753553230241   0.888940539746438   0.624942263672964   1.0000000
N2   N   0.611036959922086   0.888891974658201   0.624881301893662   1.0000000
N2   N   0.444436579808456   0.388938635559705   0.625013837334835   1.0000000
N2   N   0.944419396114740   0.888923123968128   0.624933337171647   1.0000000
N2   N   0.111103062829225   0.888944013596871   0.125080791596664   1.0000000
N2   N   0.777809947231464   0.388910452298247   0.625175275660444   1.0000000
N2   N   0.444397122188209   0.888922289493417   0.125038791943586   1.0000000
N2   N   0.277674569128211   0.388873823402953   0.124807138659221   1.0000000
N2   N   0.277740419306459   0.555549305855796   0.125066084508746   1.0000000
N2   N   0.611194104938687   0.388951070327393   0.123656532733249   1.0000000
N2   N   0.777714646296008   0.888884769199322   0.125125051017980   1.0000000
N2   N   0.944426916307892   0.388885778317699   0.125043795771765   1.0000000
N2   N   0.111090231115619   0.555553283070811   0.624947951323790   1.0000000
N2   N   0.277767467844614   0.055646427606136   0.624792311441559   1.0000000
N2   N   0.777812889303419   0.555617633563974   0.625297924687748   1.0000000
N2   N   0.611049183073960   0.055592450683601   0.624879472453836   1.0000000
N2   N   0.944376440772432   0.055554531906372   0.624963968705743   1.0000000
N2   N   0.051035854159232   0.108553389310294   0.375000000000000   1.0000000
N2   N   0.558409263069490   0.602450545790734   0.375000000000000   1.0000000
N2   N   0.388575777243028   0.114058024251781   0.375000000000000   1.0000000
N2   N   0.894878135095659   0.614623537069312   0.375000000000000   1.0000000
N2   N   0.720443177718551   0.113243843585281   0.375000000000000   1.0000000
N2   N   0.055549829487398   0.777778629040578   0.875000000000000   1.0000000
N2   N   0.388881198496697   0.777777429714141   0.875000000000000   1.0000000
N2   N   0.222211815339205   0.277765356354212   0.875000000000000   1.0000000
N2   N   0.722212906924760   0.777774906230788   0.875000000000000   1.0000000
N2   N   0.555541857885051   0.277763444264038   0.875000000000000   1.0000000
N2   N   0.888884524429694   0.277777811506835   0.875000000000000   1.0000000
N2   N   0.225313834363734   0.779906501029200   0.375000000000000   1.0000000
N2   N   0.052217136549357   0.276878697460052   0.375000000000000   1.0000000
N2   N   0.381378774515941   0.274511023958886   0.375000000000000   1.0000000
N2   N   0.556574758977942   0.775589779631367   0.375000000000000   1.0000000
N2   N   0.888662156416705   0.776836669339391   0.375000000000000   1.0000000
N2   N   0.720761358930900   0.281661620987924   0.375000000000000   1.0000000
N2   N   0.055543980814518   0.944440363487693   0.875000000000000   1.0000000
N2   N   0.388881272852962   0.944438236049268   0.875000000000000   1.0000000
N2   N   0.222214701726273   0.444443329656310   0.875000000000000   1.0000000
N2   N   0.555541289715133   0.444436672413339   0.875000000000000   1.0000000
N2   N   0.722212851179984   0.944439991727117   0.875000000000000   1.0000000
N2   N   0.888888609403311   0.444446772582732   0.875000000000000   1.0000000
N2   N   0.057326762835739   0.445292684812820   0.375000000000000   1.0000000
N2   N   0.223248494138377   0.946238093966027   0.375000000000000   1.0000000
N2   N   0.556072844450418   0.947806755883172   0.375000000000000   1.0000000
N2   N   0.886391429477185   0.942830230297143   0.375000000000000   1.0000000
N2   N   0.740358011388680   0.454423070508753   0.375000000000000   1.0000000
N2   N   0.222213538581346   0.611111352200195   0.875000000000000   1.0000000
N2   N   0.055543451109892   0.111101523126875   0.875000000000000   1.0000000
N2   N   0.555545915320051   0.611107160534109   0.875000000000000   1.0000000
N2   N   0.388877768466167   0.111098427737272   0.875000000000000   1.0000000
N2   N   0.888887564185617   0.611112305199641   0.875000000000000   1.0000000
N2   N   0.059855432191280   0.613326879303128   0.375000000000000   1.0000000
N2   N   0.722211031230818   0.111103998906540   0.875000000000000   1.0000000
N2   N   0.218603290199054   0.109586335230058   0.375000000000000   1.0000000
N2   N   0.391608177587293   0.610207353896574   0.375000000000000   1.0000000
N2   N   0.723092267884468   0.608380689775662   0.375000000000000   1.0000000
N2   N   0.555708903052710   0.121685851334241   0.375000000000000   1.0000000
N2   N   0.388878373145704   0.611110019044412   0.875000000000000   1.0000000
N2   N   0.885803293076911   0.110524563822447   0.375000000000000   1.0000000
N2   N   0.222215580579248   0.777778485072154   0.875000000000000   1.0000000
N2   N   0.055549524160177   0.277774569131870   0.875000000000000   1.0000000
N2   N   0.388876057040133   0.277765998209571   0.875000000000000   1.0000000
N2   N   0.555546437975748   0.777774573994218   0.875000000000000   1.0000000
N2   N   0.888882314204219   0.777778624924140   0.875000000000000   1.0000000
N2   N   0.722214758674567   0.277771768412353   0.875000000000000   1.0000000
N2   N   0.058413006245834   0.779768585879700   0.375000000000000   1.0000000
N2   N   0.391276502961199   0.779036808314133   0.375000000000000   1.0000000
N2   N   0.214728521615188   0.273316636369745   0.375000000000000   1.0000000
N2   N   0.721820616257945   0.775644473879723   0.375000000000000   1.0000000
N2   N   0.550821553353856   0.298575551730507   0.375000000000000   1.0000000
N2   N   0.887028074981115   0.278682060889891   0.375000000000000   1.0000000
N2   N   0.055550707173092   0.444445970805601   0.875000000000000   1.0000000
N2   N   0.222213862397905   0.944441731112145   0.875000000000000   1.0000000
N2   N   0.555545218783015   0.944439351761266   0.875000000000000   1.0000000
N2   N   0.388880919457117   0.444436210467527   0.875000000000000   1.0000000
N2   N   0.888880378126824   0.944441163469869   0.875000000000000   1.0000000
N2   N   0.053857701305077   0.943390040658400   0.375000000000000   1.0000000
N2   N   0.722221013800364   0.444444114720393   0.875000000000000   1.0000000
N2   N   0.390835902603869   0.947833258100146   0.375000000000000   1.0000000
N2   N   0.222058833541934   0.443001592693305   0.375000000000000   1.0000000
N2   N   0.225378676122804   0.611764744583789   0.375000000000000   1.0000000
N2   N   0.720729910074145   0.944083678791270   0.375000000000000   1.0000000
N2   N   0.893744067970136   0.447194720547261   0.375000000000000   1.0000000
N2   N   0.055550604998981   0.611111169040940   0.875000000000000   1.0000000
N2   N   0.222208669910827   0.111101637406743   0.875000000000000   1.0000000
N2   N   0.722213091570205   0.611108284708753   0.875000000000000   1.0000000
N2   N   0.555543530100009   0.111098669560183   0.875000000000000   1.0000000
N2   N   0.888881174913239   0.111105567869131   0.875000000000000   1.0000000
B2   B   0.107210773571821   0.053732208393006   0.375000000000000   1.0000000
B2   B   0.612296934095885   0.539620405927853   0.375000000000000   1.0000000
B2   B   0.445249036180555   0.059648398256683   0.375000000000000   1.0000000
B2   B   0.949186812888806   0.558145357340413   0.375000000000000   1.0000000
B2   B   0.774984744188715   0.055720764498449   0.375000000000000   1.0000000
B2   B   0.111100913699232   0.722208865658362   0.875000000000000   1.0000000
B2   B   0.444428354217788   0.722196452753538   0.875000000000000   1.0000000
B2   B   0.277778064593689   0.222239514875516   0.875000000000000   1.0000000
B2   B   0.777749159677115   0.722194748394936   0.875000000000000   1.0000000
B2   B   0.611108299152710   0.222231974788634   0.875000000000000   1.0000000
B2   B   0.944444893959752   0.222230979952890   0.875000000000000   1.0000000
B2   B   0.280397206029683   0.723250622273366   0.375000000000000   1.0000000
B2   B   0.105056314110681   0.219224461777650   0.375000000000000   1.0000000
B2   B   0.442930324759564   0.224399264456001   0.375000000000000   1.0000000
B2   B   0.611510196512627   0.717125867553578   0.375000000000000   1.0000000
B2   B   0.947633568011502   0.724594098037747   0.375000000000000   1.0000000
B2   B   0.775451063967172   0.224252476674710   0.375000000000000   1.0000000
B2   B   0.111091910108035   0.888873544338745   0.875000000000000   1.0000000
B2   B   0.444435332656720   0.888868463707755   0.875000000000000   1.0000000
B2   B   0.277790197915064   0.388910241614567   0.875000000000000   1.0000000
B2   B   0.611110302778582   0.388906645436551   0.875000000000000   1.0000000
B2   B   0.777754603987508   0.888866730854216   0.875000000000000   1.0000000
B2   B   0.944445412481418   0.388902044792157   0.875000000000000   1.0000000
B2   B   0.111071220997356   0.388448525230569   0.375000000000000   1.0000000
B2   B   0.279787544695584   0.891118427226391   0.375000000000000   1.0000000
B2   B   0.610090731738236   0.888615186494057   0.375000000000000   1.0000000
B2   B   0.942619304490241   0.887657548193993   0.375000000000000   1.0000000
B2   B   0.782734676772772   0.390927516570125   0.375000000000000   1.0000000
B2   B   0.277783079663223   0.555553775453071   0.875000000000000   1.0000000
B2   B   0.111092709294386   0.055548172989035   0.875000000000000   1.0000000
B2   B   0.611089773524932   0.555543337177154   0.875000000000000   1.0000000
B2   B   0.444443741345387   0.055545934804826   0.875000000000000   1.0000000
B2   B   0.944432619169569   0.555553318429101   0.875000000000000   1.0000000
B2   B   0.114379400723115   0.556702752949597   0.375000000000000   1.0000000
B2   B   0.777765268410626   0.055547420319826   0.875000000000000   1.0000000
B2   B   0.276941224707923   0.056714840740279   0.375000000000000   1.0000000
B2   B   0.447702071778481   0.553130054992364   0.375000000000000   1.0000000
B2   B   0.784126982107417   0.560634874672983   0.375000000000000   1.0000000
B2   B   0.609822604197368   0.061179879982838   0.375000000000000   1.0000000
B2   B   0.444435803986553   0.555550689856329   0.875000000000000   1.0000000
B2   B   0.940411946367166   0.053748105036822   0.375000000000000   1.0000000
B2   B   0.277772581829915   0.722207440134450   0.875000000000000   1.0000000
B2   B   0.111111969742221   0.222233837771496   0.875000000000000   1.0000000
B2   B   0.444455316290275   0.222237628021029   0.875000000000000   1.0000000
B2   B   0.611084802011093   0.722192758307672   0.875000000000000   1.0000000
B2   B   0.944422121985330   0.722204194565587   0.875000000000000   1.0000000
B2   B   0.777771735079977   0.222229513168969   0.875000000000000   1.0000000
B2   B   0.114418667532193   0.724323359696833   0.375000000000000   1.0000000
B2   B   0.445502565890500   0.721108876344556   0.375000000000000   1.0000000
B2   B   0.269033497745245   0.219013469783494   0.375000000000000   1.0000000
B2   B   0.777065628987009   0.719784741044709   0.375000000000000   1.0000000
B2   B   0.610087308094355   0.238222213592801   0.375000000000000   1.0000000
B2   B   0.941336589544876   0.221915907577110   0.375000000000000   1.0000000
B2   B   0.111123945419963   0.388904907164901   0.875000000000000   1.0000000
B2   B   0.277771542506027   0.888873208242551   0.875000000000000   1.0000000
B2   B   0.611090811307283   0.888864713423051   0.875000000000000   1.0000000
B2   B   0.444455785063465   0.388918489051128   0.875000000000000   1.0000000
B2   B   0.944420437428224   0.888871672254450   0.875000000000000   1.0000000
B2   B   0.111942100926823   0.890173723818826   0.375000000000000   1.0000000
B2   B   0.777768221544443   0.388902205611346   0.875000000000000   1.0000000
B2   B   0.445457292938520   0.890755962853522   0.375000000000000   1.0000000
B2   B   0.274236761129206   0.384109874128739   0.375000000000000   1.0000000
B2   B   0.280409558325805   0.554860436389036   0.375000000000000   1.0000000
B2   B   0.775634804366744   0.887273183170725   0.375000000000000   1.0000000
B2   B   0.946575904636829   0.389995665107880   0.375000000000000   1.0000000
B2   B   0.111113257647249   0.555556172705292   0.875000000000000   1.0000000
B2   B   0.277771260818247   0.055550716412458   0.875000000000000   1.0000000
B2   B   0.777756073578486   0.555544079097952   0.875000000000000   1.0000000
B2   B   0.611100424975908   0.055544542491819   0.875000000000000   1.0000000
B2   B   0.944428697468336   0.055548522280447   0.875000000000000   1.0000000
B2   B   0.055483906770765   0.111162130644200   0.124975037460376   1.0000000
B2   B   0.555441602842665   0.611007076192959   0.124662090815898   1.0000000
B2   B   0.388924626935751   0.111227893751842   0.124921379248733   1.0000000
B2   B   0.888835811049690   0.611090115523387   0.124965830980137   1.0000000
B2   B   0.722169075627049   0.111142854914595   0.125037239630480   1.0000000
B2   B   0.055524991170095   0.777767025354228   0.624994706356240   1.0000000
B2   B   0.388861244686467   0.777752038566918   0.624965831504362   1.0000000
B2   B   0.222177045309433   0.277953960032340   0.624932704753034   1.0000000
B2   B   0.722136339543045   0.777720765405695   0.624999087347990   1.0000000
B2   B   0.555716669995056   0.278059143056611   0.625291647574958   1.0000000
B2   B   0.888856381518921   0.277801178553219   0.625000327077123   1.0000000
B2   B   0.222204095320409   0.777758348953143   0.125003210853771   1.0000000
B2   B   0.055506781692291   0.277815355099281   0.124994287188213   1.0000000
B2   B   0.388956774060221   0.278004466085286   0.124785159678078   1.0000000
B2   B   0.555465095657714   0.777719936238345   0.125050103560087   1.0000000
B2   B   0.888839417966363   0.777764174719270   0.124994424128415   1.0000000
B2   B   0.722233421614617   0.277876159192053   0.124911049123973   1.0000000
B2   B   0.055503050651468   0.944460048663876   0.624995432051301   1.0000000
B2   B   0.388877031657800   0.944477238194294   0.624998986153904   1.0000000
B2   B   0.222220554855089   0.444457906311579   0.624924013074835   1.0000000
B2   B   0.555647082332882   0.444475201197108   0.625147535032314   1.0000000
B2   B   0.722129730861994   0.944421752759745   0.624948565335446   1.0000000
B2   B   0.888864949303407   0.444454918585544   0.625013434196481   1.0000000
B2   B   0.055542026504737   0.444444417752045   0.125041406465410   1.0000000
B2   B   0.222192451845020   0.944457752191015   0.125004975693629   1.0000000
B2   B   0.555498436317913   0.944454815007936   0.125067558161368   1.0000000
B2   B   0.388856698772397   0.444544685990994   0.125578607707168   1.0000000
B2   B   0.888812956004304   0.944434461983513   0.125015197362822   1.0000000
B2   B   0.722189689663079   0.444470173311772   0.124717939129128   1.0000000
B2   B   0.222223071481704   0.611075054704651   0.624903635686499   1.0000000
B2   B   0.055483906770765   0.111162130644200   0.625024962539667   1.0000000
B2   B   0.555441602842665   0.611007076192959   0.625337909184102   1.0000000
B2   B   0.388924626935751   0.111227893751842   0.625078620751260   1.0000000
B2   B   0.888835811049690   0.611090115523387   0.625034169019855   1.0000000
B2   B   0.055534892519450   0.611090746400906   0.125006738674401   1.0000000
B2   B   0.722169075627049   0.111142854914595   0.624962760369534   1.0000000
B2   B   0.222172743393580   0.111184066639970   0.125050232561992   1.0000000
B2   B   0.388883077615970   0.611058189689449   0.125001680315468   1.0000000
B2   B   0.722159790170390   0.611062810192751   0.124680039508583   1.0000000
B2   B   0.555573445682561   0.111223858038913   0.125024749722483   1.0000000
B2   B   0.388883077615970   0.611058189689449   0.624998319684539   1.0000000
B2   B   0.888814802743720   0.111121464679239   0.124994930394949   1.0000000
B2   B   0.222204095320409   0.777758348953143   0.624996789146222   1.0000000
B2   B   0.055506781692291   0.277815355099281   0.625005712811801   1.0000000
B2   B   0.388956774060221   0.278004466085286   0.625214840321900   1.0000000
B2   B   0.555465095657714   0.777719936238345   0.624949896439934   1.0000000
B2   B   0.888839417966363   0.777764174719270   0.625005575871578   1.0000000
B2   B   0.722233421614617   0.277876159192046   0.625088950876034   1.0000000
B2   B   0.055524991170095   0.777767025354228   0.125005293643788   1.0000000
B2   B   0.388861244686467   0.777752038566918   0.125034168495624   1.0000000
B2   B   0.222177045309433   0.277953960032340   0.125067295246981   1.0000000
B2   B   0.722136339543045   0.777720765405695   0.125000912652002   1.0000000
B2   B   0.555716669995056   0.278059143056611   0.124708352425042   1.0000000
B2   B   0.888856381518921   0.277801178553219   0.124999672922884   1.0000000
B2   B   0.055542026504737   0.444444417752045   0.624958593534569   1.0000000
B2   B   0.222192451845020   0.944457752191015   0.624995024306356   1.0000000
B2   B   0.555498436317913   0.944454815007936   0.624932441838639   1.0000000
B2   B   0.388856698772397   0.444544685990994   0.624421392292839   1.0000000
B2   B   0.888812956004304   0.944434461983513   0.624984802637156   1.0000000
B2   B   0.055503050651468   0.944460048663876   0.125004567948692   1.0000000
B2   B   0.722189689663079   0.444470173311772   0.625282060870886   1.0000000
B2   B   0.388877031657800   0.944477238194294   0.125001013846060   1.0000000
B2   B   0.222220554855089   0.444457906311579   0.125075986925193   1.0000000
B2   B   0.222223071481704   0.611075054704651   0.125096364313494   1.0000000
B2   B   0.555647082332882   0.444475201197108   0.124852464967672   1.0000000
B2   B   0.722129730861994   0.944421752759745   0.125051434664562   1.0000000
B2   B   0.888864949303407   0.444454918585544   0.124986565803498   1.0000000
B2   B   0.055534892519450   0.611090746400906   0.624993261325613   1.0000000
B2   B   0.222172743393580   0.111184066639970   0.624949767438016   1.0000000
B2   B   0.722159790170390   0.611062810192751   0.625319960491389   1.0000000
B2   B   0.555573445682561   0.111223858038913   0.624975250277523   1.0000000
B2   B   0.888814802743720   0.111121464679239   0.625005069605051   1.0000000


