data_1
_audit_creation_method   'vasp2cif'
_cell_length_a    17.52789999999977
_cell_length_b    17.52789999999977
_cell_length_c    15.0
_cell_angle_alpha    90.0
_cell_angle_beta    90.0
_cell_angle_gamma    119.99999999999916

_symmetry_space_group_name_H-M    'P 1'
loop_
_atom_site_label
_atom_site_type_symbol
_atom_site_fract_x
_atom_site_fract_y
_atom_site_fract_z
_atom_site_occupancy
B2   B   0.905310123629570   0.953372036106166   0.118136634584667   1.0000000
B2   B   0.904277584943954   0.095878931673881   0.117841494885354   1.0000000
B2   B   0.903891871361380   0.238681208013395   0.117098062910768   1.0000000
B2   B   0.903908610935787   0.381456393990884   0.116533714050306   1.0000000
B2   B   0.904817128712572   0.524241824102056   0.116185570741118   1.0000000
B2   B   0.906027853058699   0.667311564518478   0.117211190570217   1.0000000
B2   B   0.906505340785225   0.810939683188256   0.118895783143862   1.0000000
B2   B   0.047902323529565   0.952252623609125   0.117537947437561   1.0000000
B2   B   0.046787005073450   0.094851013069586   0.118134078731677   1.0000000
B2   B   0.046499762324357   0.237932849911715   0.116860130069326   1.0000000
B2   B   0.046895698265287   0.380853085343243   0.114677879791105   1.0000000
B2   B   0.047988427920628   0.523584956339065   0.114735842517644   1.0000000
B2   B   0.048715777130079   0.666419271469446   0.115801166371801   1.0000000
B2   B   0.048605021332954   0.809417337189522   0.117095579644383   1.0000000
B2   B   0.190735742792692   0.951553030570431   0.117091177853286   1.0000000
B2   B   0.189217336477322   0.093656554865557   0.118892689432584   1.0000000
B2   B   0.188265774588282   0.236380528279649   0.118113652605259   1.0000000
B2   B   0.189265614502792   0.379969385930186   0.110873740650569   1.0000000
B2   B   0.191231234485724   0.522755634803941   0.108177077506807   1.0000000
B2   B   0.191918235542330   0.665684914351030   0.111208566100859   1.0000000
B2   B   0.191465734714759   0.808691516991255   0.114982504806793   1.0000000
B2   B   0.333736936624601   0.951437275140402   0.115779464174624   1.0000000
B2   B   0.332838321676017   0.094122534162196   0.117206229864962   1.0000000
B2   B   0.330096036681858   0.234768972454793   0.116958221405719   1.0000000
B2   B   0.329068883106456   0.377968372622340   0.102577887625111   1.0000000
B2   B   0.334596745030314   0.520319292968339   0.092599241413038   1.0000000
B2   B   0.335479554264832   0.664664333592075   0.101556689030768   1.0000000
B2   B   0.334468985255497   0.808230050510098   0.111202018622374   1.0000000
B2   B   0.476571514110944   0.952155720215687   0.114705357244400   1.0000000
B2   B   0.475918601984702   0.095334783511608   0.116171776189771   1.0000000
B2   B   0.474919482377762   0.238118037597898   0.109367491885767   1.0000000
B2   B   0.465416865316222   0.372316339897843   0.082519730635501   1.0000000
B2   B   0.479819025916560   0.665536998494607   0.092603456698237   1.0000000
B2   B   0.477400112294435   0.808912860299908   0.108173207718931   1.0000000
B2   B   0.619304824081331   0.953243346072532   0.114673862399646   1.0000000
B2   B   0.618693918781464   0.096230189605459   0.116524386815496   1.0000000
B2   B   0.618062834041447   0.239561685260493   0.112918730883744   1.0000000
B2   B   0.617014301450573   0.383128514925672   0.098030703508679   1.0000000
B2   B   0.627843231833542   0.534736217777044   0.082483500749168   1.0000000
B2   B   0.622180712147569   0.671072899057831   0.102582941642615   1.0000000
B2   B   0.620183490069086   0.810869732787325   0.110885773184896   1.0000000
B2   B   0.762222153506034   0.953646336454218   0.116882184340191   1.0000000
B2   B   0.761475850429546   0.096256659132299   0.117112073346772   1.0000000
B2   B   0.760999787953683   0.239135862570169   0.116419531215528   1.0000000
B2   B   0.760591027319060   0.382094087075410   0.112914640602206   1.0000000
B2   B   0.762027389919965   0.525230553376901   0.109349150166491   1.0000000
B2   B   0.765383911733513   0.670054734004179   0.116957450872653   1.0000000
B2   B   0.763778265856730   0.811881162215096   0.118126511658581   1.0000000
N2   N   0.953295381916624   0.905803758560520   0.117926339109962   1.0000000
N2   N   0.951971966974456   0.048186453661747   0.117979625589026   1.0000000
N2   N   0.951286511145591   0.190843691992794   0.117525784524965   1.0000000
N2   N   0.951376495316087   0.333716981457237   0.116531898299419   1.0000000
N2   N   0.952359320604817   0.476532557790377   0.116516603605422   1.0000000
N2   N   0.953455608041063   0.619412545914911   0.116662434631546   1.0000000
N2   N   0.953759523611493   0.762607162357193   0.118081069331348   1.0000000
N2   N   0.095683550302770   0.904473633206253   0.117144770548406   1.0000000
N2   N   0.094350777805263   0.046861827913866   0.117931938997525   1.0000000
N2   N   0.093230931982662   0.189385108043844   0.118224848507340   1.0000000
N2   N   0.093648666492340   0.332757521759704   0.114533875491292   1.0000000
N2   N   0.095257767565099   0.475900293645507   0.113033144095388   1.0000000
N2   N   0.096250370989042   0.618762359797318   0.114212581370133   1.0000000
N2   N   0.096240353894458   0.761630891483055   0.116053327813503   1.0000000
N2   N   0.238528219915014   0.903920927269385   0.116041450101455   1.0000000
N2   N   0.237545734905758   0.046396426889307   0.118081646351262   1.0000000
N2   N   0.235261826839640   0.187751492044042   0.120274176693192   1.0000000
N2   N   0.234225982389989   0.330268752701280   0.113923362232461   1.0000000
N2   N   0.237767581544622   0.474828411190642   0.104866426945226   1.0000000
N2   N   0.239343875113197   0.618162727756908   0.106637928512307   1.0000000
N2   N   0.239070026266957   0.761085987154380   0.112443297450164   1.0000000
N2   N   0.381391574116672   0.903900447325330   0.114187159742362   1.0000000
N2   N   0.380744567580888   0.046696796137696   0.116645181051880   1.0000000
N2   N   0.379609992350279   0.188767998608438   0.115693312047679   1.0000000
N2   N   0.375271462217482   0.327747558276956   0.108792481290766   1.0000000
N2   N   0.375383761924081   0.468434979377507   0.084267437494598   1.0000000
N2   N   0.382740818008791   0.617397641684599   0.092077815397449   1.0000000
N2   N   0.381990325684523   0.760802967641737   0.106637697588076   1.0000000
N2   N   0.524256453736097   0.904887081407960   0.113016292718672   1.0000000
N2   N   0.523618671882921   0.047783032273639   0.116484155983023   1.0000000
N2   N   0.522975973434876   0.190702343781947   0.113985708946443   1.0000000
N2   N   0.520898744040322   0.332601550874246   0.095515097036562   1.0000000
N2   N   0.531707563591047   0.624748219978147   0.084286233468092   1.0000000
N2   N   0.525321508154186   0.762367309433722   0.104868622246162   1.0000000
N2   N   0.667397255377909   0.906488271093362   0.114549997458696   1.0000000
N2   N   0.666437978811764   0.048763798699308   0.116534531697274   1.0000000
N2   N   0.665843961675756   0.191722853549091   0.116069301465638   1.0000000
N2   N   0.665046998826811   0.335107388798405   0.108716215703688   1.0000000
N2   N   0.667552456720783   0.479252354108197   0.095480567876214   1.0000000
N2   N   0.672404062372809   0.624876522257649   0.108768496120653   1.0000000
N2   N   0.669884062043421   0.765913515045999   0.113939302088289   1.0000000
N2   N   0.810773938140560   0.906919223519877   0.118235135823239   1.0000000
N2   N   0.809312214385990   0.048861822273240   0.117554981175121   1.0000000
N2   N   0.808682241044002   0.191465272362255   0.117221991698352   1.0000000
N2   N   0.808416186983753   0.334301460308959   0.116070533602108   1.0000000
N2   N   0.809448591108079   0.477179232913669   0.113978393894779   1.0000000
N2   N   0.811379151638470   0.620538146102469   0.115689936785576   1.0000000
N2   N   0.812402460136415   0.764885963298191   0.120291903830400   1.0000000
Sb2   Sb   0.500723656953212   0.499386760870797   0.017693805659083   1.0000000


