data_1
_audit_creation_method   'vasp2cif'
_cell_length_a    14.93631414619966
_cell_length_b    14.936314146199727
_cell_length_c    13.341276283792837
_cell_angle_alpha    90.0
_cell_angle_beta    90.0
_cell_angle_gamma    119.99999999999984

_symmetry_space_group_name_H-M    'P 1'
loop_
_atom_site_label
_atom_site_type_symbol
_atom_site_fract_x
_atom_site_fract_y
_atom_site_fract_z
_atom_site_occupancy
Pb2   Pb   0.444444444444443   0.388888888888886   0.375000000000000   1.0000000
N2   N   0.111104587574503   0.055533067157526   0.124688280907650   1.0000000
N2   N   0.611123251799450   0.555553437830718   0.126318962779388   1.0000000
N2   N   0.444428479583018   0.055533067157526   0.124688280907650   1.0000000
N2   N   0.944461112541188   0.555567037228103   0.125020688482466   1.0000000
N2   N   0.777777777777779   0.055555555555557   0.125033998136250   1.0000000
N2   N   0.111111111111114   0.722222222222221   0.624798123914378   1.0000000
N2   N   0.444428479583018   0.722228745758833   0.625311719092353   1.0000000
N2   N   0.277779895502622   0.222210081533874   0.623681037220617   1.0000000
N2   N   0.777800266175809   0.722228745758833   0.625311719092353   1.0000000
N2   N   0.611102398860804   0.222230934472522   0.625158247895136   1.0000000
N2   N   0.944454929890220   0.222234023370939   0.625134268223293   1.0000000
N2   N   0.277766296105237   0.722227408646425   0.125020688482466   1.0000000
N2   N   0.111128535611722   0.222230934472522   0.124841752104863   1.0000000
N2   N   0.444430186031259   0.222210081533874   0.126318962779388   1.0000000
N2   N   0.611102398860804   0.722204797721617   0.124841752104863   1.0000000
N2   N   0.944461112541188   0.722227408646425   0.125020688482466   1.0000000
N2   N   0.777779093480725   0.222234023370939   0.124865731776709   1.0000000
N2   N   0.111105924686912   0.888872220792140   0.624979311517534   1.0000000
N2   N   0.444433567139766   0.888883450236548   0.625149565407165   1.0000000
N2   N   0.277779895502622   0.388903147302070   0.623681037220617   1.0000000
N2   N   0.611123251799450   0.388903147302070   0.623681037220617   1.0000000
N2   N   0.777779093480725   0.888878403443109   0.625134268223293   1.0000000
N2   N   0.944449883096780   0.388899766193563   0.625149565407165   1.0000000
N2   N   0.111104587574503   0.388904853750311   0.124688280907650   1.0000000
N2   N   0.277766296105237   0.888872220792140   0.125020688482466   1.0000000
N2   N   0.611099309962392   0.888878403443109   0.124865731776709   1.0000000
N2   N   0.444444444444443   0.388888888888886   0.135561832560645   1.0000000
N2   N   0.944449883096780   0.888883450236548   0.124850434592839   1.0000000
N2   N   0.777800266175809   0.388904853750311   0.124688280907650   1.0000000
N2   N   0.277762233154261   0.555571100179077   0.624987598047589   1.0000000
N2   N   0.111104587574503   0.055533067157526   0.625311719092353   1.0000000
N2   N   0.611123251799450   0.555553437830718   0.623681037220617   1.0000000
N2   N   0.444428479583018   0.055533067157526   0.625311719092353   1.0000000
N2   N   0.944461112541188   0.555567037228103   0.624979311517534   1.0000000
N2   N   0.111105924686912   0.555567037228103   0.125020688482466   1.0000000
N2   N   0.777777777777779   0.055555555555557   0.624966001863746   1.0000000
N2   N   0.277762233154261   0.055524466308521   0.125012401952413   1.0000000
N2   N   0.444430186031259   0.555553437830718   0.126318962779388   1.0000000
N2   N   0.777808867024815   0.555571100179077   0.125012401952413   1.0000000
N2   N   0.611099309962392   0.055554239852609   0.124865731776709   1.0000000
N2   N   0.444430186031259   0.555553437830718   0.623681037220617   1.0000000
N2   N   0.944454929890220   0.055554239852609   0.124865731776709   1.0000000
N2   N   0.277766296105237   0.722227408646425   0.624979311517534   1.0000000
N2   N   0.111128535611722   0.222230934472522   0.625158247895136   1.0000000
N2   N   0.444430186031259   0.222210081533874   0.623681037220617   1.0000000
N2   N   0.611102398860804   0.722204797721620   0.625158247895136   1.0000000
N2   N   0.944461112541188   0.722227408646425   0.624979311517534   1.0000000
N2   N   0.777779093480725   0.222234023370939   0.625134268223293   1.0000000
N2   N   0.111111111111114   0.722222222222221   0.125201876085613   1.0000000
N2   N   0.444428479583018   0.722228745758833   0.124688280907650   1.0000000
N2   N   0.277779895502622   0.222210081533874   0.126318962779388   1.0000000
N2   N   0.777800266175809   0.722228745758833   0.124688280907650   1.0000000
N2   N   0.611102398860804   0.222230934472522   0.124841752104863   1.0000000
N2   N   0.944454929890220   0.222234023370939   0.124865731776709   1.0000000
N2   N   0.111104587574503   0.388904853750311   0.625311719092353   1.0000000
N2   N   0.277766296105237   0.888872220792140   0.624979311517534   1.0000000
N2   N   0.611099309962392   0.888878403443109   0.625134268223293   1.0000000
N2   N   0.444444444444443   0.388888888888886   0.614438167439350   1.0000000
N2   N   0.944449883096780   0.888883450236548   0.625149565407165   1.0000000
N2   N   0.111105924686912   0.888872220792140   0.125020688482466   1.0000000
N2   N   0.777800266175809   0.388904853750311   0.625311719092353   1.0000000
N2   N   0.444433567139766   0.888883450236548   0.124850434592839   1.0000000
N2   N   0.277779895502622   0.388903147302070   0.126318962779388   1.0000000
N2   N   0.277762233154261   0.555571100179077   0.125012401952413   1.0000000
N2   N   0.611123251799450   0.388903147302070   0.126318962779388   1.0000000
N2   N   0.777779093480725   0.888878403443109   0.124865731776709   1.0000000
N2   N   0.944449883096780   0.388899766193563   0.124850434592839   1.0000000
N2   N   0.111105924686912   0.555567037228103   0.624979311517534   1.0000000
N2   N   0.277762233154261   0.055524466308521   0.624987598047589   1.0000000
N2   N   0.777808867024815   0.555571100179077   0.624987598047589   1.0000000
N2   N   0.611099309962392   0.055554239852609   0.625134268223293   1.0000000
N2   N   0.944454929890220   0.055554239852609   0.625134268223293   1.0000000
N2   N   0.053962301686990   0.110100281273494   0.375000000000000   1.0000000
N2   N   0.556168633497727   0.612337266995457   0.375000000000000   1.0000000
N2   N   0.387115771018504   0.101278250954823   0.375000000000000   1.0000000
N2   N   0.892321913481088   0.612827623407218   0.375000000000000   1.0000000
N2   N   0.722519175583975   0.110814157749356   0.375000000000000   1.0000000
N2   N   0.055552878083428   0.777780455249906   0.875000000000000   1.0000000
N2   N   0.388895611481133   0.777778908285525   0.875000000000000   1.0000000
N2   N   0.222225917972828   0.277779625653081   0.875000000000000   1.0000000
N2   N   0.722221155777969   0.777781038876400   0.875000000000000   1.0000000
N2   N   0.555553707680258   0.277779625653081   0.875000000000000   1.0000000
N2   N   0.888887973026638   0.277775946053295   0.875000000000000   1.0000000
N2   N   0.221591145030053   0.777462239181689   0.375000000000000   1.0000000
N2   N   0.053962301686989   0.277195353746828   0.375000000000000   1.0000000
N2   N   0.371794464214955   0.243588928429907   0.375000000000000   1.0000000
N2   N   0.556137979586506   0.779371031646349   0.375000000000000   1.0000000
N2   N   0.891613421385241   0.780011902891438   0.375000000000000   1.0000000
N2   N   0.723233052059840   0.277195353746828   0.375000000000000   1.0000000
N2   N   0.055554425047815   0.944450036528944   0.875000000000000   1.0000000
N2   N   0.388895611481133   0.944450036528944   0.875000000000000   1.0000000
N2   N   0.222228356277266   0.444433550507486   0.875000000000000   1.0000000
N2   N   0.555527173861972   0.444430253597650   0.875000000000000   1.0000000
N2   N   0.722223098916593   0.944446197833187   0.875000000000000   1.0000000
N2   N   0.888883296804384   0.444437721852195   0.875000000000000   1.0000000
N2   N   0.053321430441888   0.444934851827134   0.375000000000000   1.0000000
N2   N   0.220505709926118   0.941011419852241   0.375000000000000   1.0000000
N2   N   0.556057303631675   0.944695318482500   0.375000000000000   1.0000000
N2   N   0.371794464214955   0.461538869118373   0.375000000000000   1.0000000
N2   N   0.888638014850828   0.944695318482500   0.375000000000000   1.0000000
N2   N   0.732055082378512   0.446217562314825   0.375000000000000   1.0000000
N2   N   0.222229032727285   0.611104300606054   0.875000000000000   1.0000000
N2   N   0.055552294456939   0.111112177555360   0.875000000000000   1.0000000
N2   N   0.555553707680258   0.611107415360510   0.875000000000000   1.0000000
N2   N   0.388899782825842   0.111128139103116   0.875000000000000   1.0000000
N2   N   0.888875267878756   0.611104300606054   0.875000000000000   1.0000000
N2   N   0.055871094151641   0.611742188303288   0.375000000000000   1.0000000
N2   N   0.722223098916593   0.111110234416744   0.875000000000000   1.0000000
N2   N   0.214162479936315   0.101278250954823   0.375000000000000   1.0000000
N2   N   0.387115771018504   0.619170853397013   0.375000000000000   1.0000000
N2   N   0.732055082378512   0.619170853397013   0.375000000000000   1.0000000
N2   N   0.556137979586506   0.110100281273494   0.375000000000000   1.0000000
N2   N   0.388899782825842   0.611104977056067   0.875000000000000   1.0000000
N2   N   0.888294982165365   0.110814157749356   0.375000000000000   1.0000000
N2   N   0.222227577166482   0.777780455249906   0.875000000000000   1.0000000
N2   N   0.055552294456939   0.277773450234912   0.875000000000000   1.0000000
N2   N   0.388903079735678   0.277806159471359   0.875000000000000   1.0000000
N2   N   0.555559883098434   0.777781038876400   0.875000000000000   1.0000000
N2   N   0.888883296804384   0.777778908285525   0.875000000000000   1.0000000
N2   N   0.722221155777969   0.277773450234912   0.875000000000000   1.0000000
N2   N   0.055871094151641   0.777462239181689   0.375000000000000   1.0000000
N2   N   0.388398481506195   0.780011902891438   0.375000000000000   1.0000000
N2   N   0.220996066337876   0.277164699835608   0.375000000000000   1.0000000
N2   N   0.723233052059840   0.779371031646349   0.375000000000000   1.0000000
N2   N   0.556168633497727   0.277164699835608   0.375000000000000   1.0000000
N2   N   0.888638014850828   0.277276029701666   0.375000000000000   1.0000000
N2   N   0.055554425047815   0.444437721852195   0.875000000000000   1.0000000
N2   N   0.222229032727285   0.944458065454572   0.875000000000000   1.0000000
N2   N   0.555557387280049   0.944445360306690   0.875000000000000   1.0000000
N2   N   0.388903079735678   0.444430253597650   0.875000000000000   1.0000000
N2   N   0.888887973026638   0.944445360306690   0.875000000000000   1.0000000
N2   N   0.053321430441888   0.941719911948087   0.375000000000000   1.0000000
N2   N   0.722205194230231   0.444433550507486   0.875000000000000   1.0000000
N2   N   0.388398481506195   0.941719911948087   0.375000000000000   1.0000000
N2   N   0.214162479936315   0.446217562314825   0.375000000000000   1.0000000
N2   N   0.220505709926118   0.612827623407218   0.375000000000000   1.0000000
N2   N   0.589744404903418   0.461538869118373   0.375000000000000   1.0000000
N2   N   0.722519175583975   0.945038351167964   0.375000000000000   1.0000000
N2   N   0.891613421385241   0.444934851827134   0.375000000000000   1.0000000
N2   N   0.055552878083428   0.611105756166850   0.875000000000000   1.0000000
N2   N   0.222228356277266   0.111128139103116   0.875000000000000   1.0000000
N2   N   0.722205194230231   0.611104977056067   0.875000000000000   1.0000000
N2   N   0.555559883098434   0.111112177555360   0.875000000000000   1.0000000
N2   N   0.888887135500142   0.111110234416744   0.875000000000000   1.0000000
B2   B   0.105439235594376   0.050498567522261   0.375000000000000   1.0000000
B2   B   0.624218951698188   0.567504221116768   0.375000000000000   1.0000000
B2   B   0.445059331927886   0.050498567522261   0.375000000000000   1.0000000
B2   B   0.946040743414972   0.555978810341842   0.375000000000000   1.0000000
B2   B   0.777777777777779   0.055555555555557   0.375000000000000   1.0000000
B2   B   0.111111111111114   0.722222222222221   0.875000000000000   1.0000000
B2   B   0.444465418987380   0.722279061603713   0.875000000000000   1.0000000
B2   B   0.277700722084963   0.222165607187384   0.875000000000000   1.0000000
B2   B   0.777813642616345   0.722279061603713   0.875000000000000   1.0000000
B2   B   0.611154966187746   0.222178367145597   0.875000000000000   1.0000000
B2   B   0.944404884235029   0.222197251905045   0.875000000000000   1.0000000
B2   B   0.277354522991486   0.723395266406466   0.375000000000000   1.0000000
B2   B   0.108827105321082   0.221080219327207   0.375000000000000   1.0000000
B2   B   0.443285269418581   0.209114381635149   0.375000000000000   1.0000000
B2   B   0.612253114006138   0.724506228012249   0.375000000000000   1.0000000
B2   B   0.946040743414972   0.723395266406466   0.375000000000000   1.0000000
B2   B   0.778053075757193   0.221345290933255   0.375000000000000   1.0000000
B2   B   0.111096334326674   0.888876852350096   0.875000000000000   1.0000000
B2   B   0.444462668348137   0.888898000840742   0.875000000000000   1.0000000
B2   B   0.277700722084963   0.388868448230906   0.875000000000000   1.0000000
B2   B   0.611167726145959   0.388868448230906   0.875000000000000   1.0000000
B2   B   0.777792367670023   0.888928449098300   0.875000000000000   1.0000000
B2   B   0.944435332492586   0.388870664985192   0.875000000000000   1.0000000
B2   B   0.105439235594376   0.388274001405443   0.375000000000000   1.0000000
B2   B   0.277354522991486   0.887292589918357   0.375000000000000   1.0000000
B2   B   0.611988042400078   0.890041118157269   0.375000000000000   1.0000000
B2   B   0.944095324788806   0.889238008544523   0.375000000000000   1.0000000
B2   B   0.782834765811071   0.388274001405443   0.375000000000000   1.0000000
B2   B   0.277757029152555   0.555576304180787   0.875000000000000   1.0000000
B2   B   0.111054271729615   0.055519690716998   0.875000000000000   1.0000000
B2   B   0.611167726145959   0.555632611248374   0.875000000000000   1.0000000
B2   B   0.444465418987380   0.055519690716998   0.875000000000000   1.0000000
B2   B   0.944456480983233   0.555552815309911   0.875000000000000   1.0000000
B2   B   0.109938066926869   0.555978810341842   0.375000000000000   1.0000000
B2   B   0.777777777777779   0.055555555555557   0.875000000000000   1.0000000
B2   B   0.274998087570465   0.049996175140931   0.375000000000000   1.0000000
B2   B   0.443285269418581   0.567504221116768   0.375000000000000   1.0000000
B2   B   0.783337158192405   0.558335245762869   0.375000000000000   1.0000000
B2   B   0.611988042400078   0.055280257576141   0.375000000000000   1.0000000
B2   B   0.444464885102422   0.555632611248374   0.875000000000000   1.0000000
B2   B   0.943292215176059   0.055280257576141   0.375000000000000   1.0000000
B2   B   0.277780518023426   0.722236999006663   0.875000000000000   1.0000000
B2   B   0.111023400957866   0.222178367145597   0.875000000000000   1.0000000
B2   B   0.444464885102422   0.222165607187384   0.875000000000000   1.0000000
B2   B   0.611154966187746   0.722309932375467   0.875000000000000   1.0000000
B2   B   0.944456480983233   0.722236999006663   0.875000000000000   1.0000000
B2   B   0.777792367670023   0.222197251905045   0.875000000000000   1.0000000
B2   B   0.111111111111114   0.722222222222221   0.375000000000000   1.0000000
B2   B   0.445059331927886   0.727894097738956   0.375000000000000   1.0000000
B2   B   0.265829112216561   0.209114381635149   0.375000000000000   1.0000000
B2   B   0.782834765811071   0.727894097738956   0.375000000000000   1.0000000
B2   B   0.612253114006138   0.221080219327207   0.375000000000000   1.0000000
B2   B   0.943292215176059   0.221345290933255   0.375000000000000   1.0000000
B2   B   0.111054271729615   0.388867914345948   0.875000000000000   1.0000000
B2   B   0.277780518023426   0.888876852350096   0.875000000000000   1.0000000
B2   B   0.611136081428288   0.888928449098300   0.875000000000000   1.0000000
B2   B   0.444444444444443   0.388888888888886   0.875000000000000   1.0000000
B2   B   0.944435332492586   0.888898000840742   0.875000000000000   1.0000000
B2   B   0.109938066926869   0.887292589918357   0.375000000000000   1.0000000
B2   B   0.777813642616345   0.388867914345948   0.875000000000000   1.0000000
B2   B   0.445142683755743   0.889238008544523   0.375000000000000   1.0000000
B2   B   0.265829112216561   0.390048063914748   0.375000000000000   1.0000000
B2   B   0.274998087570465   0.558335245762869   0.375000000000000   1.0000000
B2   B   0.624218951698188   0.390048063914748   0.375000000000000   1.0000000
B2   B   0.778053075757193   0.890041118157269   0.375000000000000   1.0000000
B2   B   0.944095324788806   0.388190649577585   0.375000000000000   1.0000000
B2   B   0.111096334326674   0.555552815309911   0.875000000000000   1.0000000
B2   B   0.277757029152555   0.055514058305113   0.875000000000000   1.0000000
B2   B   0.777819275028226   0.555576304180787   0.875000000000000   1.0000000
B2   B   0.611136081428288   0.055540965663316   0.875000000000000   1.0000000
B2   B   0.944404884235029   0.055540965663316   0.875000000000000   1.0000000
B2   B   0.055448777594251   0.111007444759110   0.124591187121497   1.0000000
B2   B   0.555684396403868   0.611368792807716   0.125431543621682   1.0000000
B2   B   0.388767746116663   0.110794104663627   0.124861322596169   1.0000000
B2   B   0.889060289083247   0.611196811208297   0.124802456674147   1.0000000
B2   B   0.722236047971111   0.111097285362218   0.124820773368553   1.0000000
B2   B   0.055576293671063   0.777757039662272   0.625042394369205   1.0000000
B2   B   0.388838291358186   0.777830938947366   0.625334996758567   1.0000000
B2   B   0.221964540525614   0.277648936929478   0.624568456378317   1.0000000
B2   B   0.722325888574215   0.777884555739089   0.625408812878501   1.0000000
B2   B   0.555684396403868   0.277648936929478   0.624568456378317   1.0000000
B2   B   0.888893119258009   0.277786238516000   0.625270706968000   1.0000000
B2   B   0.222180745991209   0.777757039662272   0.124957605630804   1.0000000
B2   B   0.055448777594251   0.277774666168477   0.124591187121497   1.0000000
B2   B   0.388554229633695   0.277108459267395   0.128283329782744   1.0000000
B2   B   0.555558667164867   0.777884555739089   0.124591187121497   1.0000000
B2   B   0.888992647589178   0.777830938947366   0.124665003241433   1.0000000
B2   B   0.722325888574215   0.277774666168477   0.124591187121497   1.0000000
B2   B   0.055502394385971   0.944340685744151   0.625334996758567   1.0000000
B2   B   0.388838291358186   0.944340685744151   0.625334996758567   1.0000000
B2   B   0.222026358546959   0.444565587216666   0.625138677403827   1.0000000
B2   B   0.556224874065939   0.444779103699634   0.621716670217251   1.0000000
B2   B   0.722236047971111   0.944472095942243   0.625179226631448   1.0000000
B2   B   0.888992647589178   0.444495041975143   0.625334996758567   1.0000000
B2   B   0.055502394385971   0.444495041975143   0.124665003241433   1.0000000
B2   B   0.222136522125042   0.944273044250082   0.124802456674147   1.0000000
B2   B   0.555547094817339   0.944440214075319   0.124729293031999   1.0000000
B2   B   0.388554229633695   0.444779103699634   0.128283329782744   1.0000000
B2   B   0.888893119258009   0.944440214075319   0.124729293031999   1.0000000
B2   B   0.722539228669718   0.444565587216666   0.124861322596169   1.0000000
B2   B   0.222136522125042   0.611196811208297   0.625197543325840   1.0000000
B2   B   0.055448777594251   0.111007444759110   0.625408812878501   1.0000000
B2   B   0.555684396403868   0.611368792807716   0.624568456378317   1.0000000
B2   B   0.388767746116663   0.110794104663627   0.625138677403827   1.0000000
B2   B   0.889060289083247   0.611196811208297   0.625197543325840   1.0000000
B2   B   0.055576293671063   0.611152587342118   0.124957605630804   1.0000000
B2   B   0.722236047971111   0.111097285362218   0.625179226631448   1.0000000
B2   B   0.222026358546959   0.110794104663627   0.124861322596169   1.0000000
B2   B   0.388767746116663   0.611306974786381   0.124861322596169   1.0000000
B2   B   0.722539228669718   0.611306974786381   0.124861322596169   1.0000000
B2   B   0.555558667164867   0.111007444759110   0.124591187121497   1.0000000
B2   B   0.388767746116663   0.611306974786381   0.625138677403827   1.0000000
B2   B   0.888861237391085   0.111097285362218   0.124820773368553   1.0000000
B2   B   0.222180745991209   0.777757039662272   0.625042394369205   1.0000000
B2   B   0.055448777594251   0.277774666168477   0.625408812878501   1.0000000
B2   B   0.388554229633695   0.277108459267395   0.621716670217251   1.0000000
B2   B   0.555558667164867   0.777884555739089   0.625408812878501   1.0000000
B2   B   0.888992647589178   0.777830938947366   0.625334996758567   1.0000000
B2   B   0.722325888574215   0.277774666168477   0.625408812878501   1.0000000
B2   B   0.055576293671063   0.777757039662272   0.124957605630804   1.0000000
B2   B   0.388838291358186   0.777830938947366   0.124665003241433   1.0000000
B2   B   0.221964540525614   0.277648936929478   0.125431543621682   1.0000000
B2   B   0.722325888574215   0.777884555739089   0.124591187121497   1.0000000
B2   B   0.555684396403868   0.277648936929478   0.125431543621682   1.0000000
B2   B   0.888893119258009   0.277786238516000   0.124729293031999   1.0000000
B2   B   0.055502394385971   0.444495041975143   0.625334996758567   1.0000000
B2   B   0.222136522125042   0.944273044250082   0.625197543325840   1.0000000
B2   B   0.555547094817339   0.944440214075319   0.625270706968000   1.0000000
B2   B   0.388554229633695   0.444779103699634   0.621716670217251   1.0000000
B2   B   0.888893119258009   0.944440214075319   0.625270706968000   1.0000000
B2   B   0.055502394385971   0.944340685744151   0.124665003241433   1.0000000
B2   B   0.722539228669718   0.444565587216666   0.625138677403827   1.0000000
B2   B   0.388838291358186   0.944340685744151   0.124665003241433   1.0000000
B2   B   0.222026358546959   0.444565587216666   0.124861322596169   1.0000000
B2   B   0.222136522125042   0.611196811208297   0.124802456674147   1.0000000
B2   B   0.556224874065939   0.444779103699634   0.128283329782744   1.0000000
B2   B   0.722236047971111   0.944472095942243   0.124820773368553   1.0000000
B2   B   0.888992647589178   0.444495041975143   0.124665003241433   1.0000000
B2   B   0.055576293671063   0.611152587342118   0.625042394369205   1.0000000
B2   B   0.222026358546959   0.110794104663627   0.625138677403827   1.0000000
B2   B   0.722539228669718   0.611306974786381   0.625138677403827   1.0000000
B2   B   0.555558667164867   0.111007444759110   0.625408812878501   1.0000000
B2   B   0.888861237391085   0.111097285362218   0.625179226631448   1.0000000


