data_1
_audit_creation_method   'vasp2cif'
_cell_length_a    14.93631414619966
_cell_length_b    14.936314146199727
_cell_length_c    13.341276283792837
_cell_angle_alpha    90.0
_cell_angle_beta    90.0
_cell_angle_gamma    119.99999999999984

_symmetry_space_group_name_H-M    'P 1'
loop_
_atom_site_label
_atom_site_type_symbol
_atom_site_fract_x
_atom_site_fract_y
_atom_site_fract_z
_atom_site_occupancy
N2   N   0.440395642383438   0.386864487858382   0.375000000000000   1.0000000
N2   N   0.111064335167739   0.055565938081792   0.124856186157266   1.0000000
N2   N   0.611135067366794   0.555732912472011   0.124848956617547   1.0000000
N2   N   0.444465773434798   0.055581217440397   0.124838353791308   1.0000000
N2   N   0.944414000802269   0.555534565450445   0.124965546499380   1.0000000
N2   N   0.777784640835586   0.055558987084371   0.124836382776436   1.0000000
N2   N   0.111096106102205   0.722214719717679   0.625104464633268   1.0000000
N2   N   0.444465773434798   0.722217889327499   0.625161646208593   1.0000000
N2   N   0.277688719081493   0.222225099787681   0.624899408653411   1.0000000
N2   N   0.777795150650307   0.722292315597560   0.625020980122495   1.0000000
N2   N   0.611175395952990   0.222177490387916   0.625135070315747   1.0000000
N2   N   0.944396616351219   0.222182862508673   0.625252321884597   1.0000000
N2   N   0.277780607823758   0.722206315320315   0.124843505417623   1.0000000
N2   N   0.110981921250426   0.222157627291818   0.124665094427401   1.0000000
N2   N   0.444428559615840   0.222215879860597   0.125144563117271   1.0000000
N2   N   0.611175395952990   0.722331238898406   0.124864929684511   1.0000000
N2   N   0.944414000802269   0.722212768684684   0.124965546499380   1.0000000
N2   N   0.777817750094947   0.222186052613337   0.124855780059685   1.0000000
N2   N   0.111093245901510   0.888903119404293   0.625144168390033   1.0000000
N2   N   0.444452317156504   0.888892825244801   0.625194171447917   1.0000000
N2   N   0.277688719081493   0.388796952627262   0.624899408653411   1.0000000
N2   N   0.611135067366794   0.388735488227952   0.625151043382433   1.0000000
N2   N   0.777817750094947   0.888965030814746   0.625144219940255   1.0000000
N2   N   0.944442280214591   0.388857579751092   0.625145612819888   1.0000000
N2   N   0.111064335167739   0.388831730419186   0.124856186157266   1.0000000
N2   N   0.277780607823758   0.888907625836697   0.124843505417642   1.0000000
N2   N   0.611133316462963   0.888925529883824   0.124875915762290   1.0000000
N2   N   0.444385174290001   0.388859253811706   0.125881297339701   1.0000000
N2   N   0.944442280214591   0.888918033796672   0.124854387179976   1.0000000
N2   N   0.777795150650307   0.388836168386467   0.124979019877188   1.0000000
N2   N   0.277757762151505   0.555501860049030   0.625080239136394   1.0000000
N2   N   0.111064335167739   0.055565938081792   0.625143813843071   1.0000000
N2   N   0.611135067366794   0.555732912472011   0.625151043382433   1.0000000
N2   N   0.444465773434798   0.055581217440397   0.625161646208593   1.0000000
N2   N   0.944414000802269   0.555534565450445   0.625034453500660   1.0000000
N2   N   0.111093245901510   0.555523459830590   0.124855831610084   1.0000000
N2   N   0.777784640835586   0.055558987084372   0.625163617223722   1.0000000
N2   N   0.277757762151505   0.055589235435520   0.124919760863730   1.0000000
N2   N   0.444428559615840   0.555546013088575   0.125144563117271   1.0000000
N2   N   0.777712588715955   0.555522961024089   0.125199194609125   1.0000000
N2   N   0.611133316462963   0.055541119911936   0.124875915762290   1.0000000
N2   N   0.444428559615840   0.555546013088575   0.624855436882514   1.0000000
N2   N   0.944396616351219   0.055547087175783   0.124747678115282   1.0000000
N2   N   0.277780607823758   0.722206315320315   0.625156494582441   1.0000000
N2   N   0.110981921250426   0.222157627291818   0.625334905572598   1.0000000
N2   N   0.444428559615840   0.222215879860598   0.624855436882514   1.0000000
N2   N   0.611175395952990   0.722331238898406   0.625135070315747   1.0000000
N2   N   0.944414000802269   0.722212768684684   0.625034453500660   1.0000000
N2   N   0.777817750094947   0.222186052613337   0.625144219940255   1.0000000
N2   N   0.111096106102205   0.722214719717679   0.124895535366748   1.0000000
N2   N   0.444465773434798   0.722217889327499   0.124838353791308   1.0000000
N2   N   0.277688719081493   0.222225099787681   0.125100591346570   1.0000000
N2   N   0.777795150650307   0.722292315597560   0.124979019877188   1.0000000
N2   N   0.611175395952990   0.222177490387916   0.124864929684511   1.0000000
N2   N   0.944396616351219   0.222182862508673   0.124747678115282   1.0000000
N2   N   0.111064335167739   0.388831730419186   0.625143813843071   1.0000000
N2   N   0.277780607823758   0.888907625836697   0.625156494582441   1.0000000
N2   N   0.611133316462963   0.888925529883824   0.625124084238027   1.0000000
N2   N   0.444385174290001   0.388859253811706   0.624118702659863   1.0000000
N2   N   0.944442280214591   0.888918033796672   0.625145612819888   1.0000000
N2   N   0.111093245901510   0.888903119404293   0.124855831610084   1.0000000
N2   N   0.777795150650307   0.388836168386467   0.625020980122495   1.0000000
N2   N   0.444452317156504   0.888892825244801   0.124805828552041   1.0000000
N2   N   0.277688719081493   0.388796952627262   0.125100591346570   1.0000000
N2   N   0.277757762151505   0.555501860049030   0.124919760863730   1.0000000
N2   N   0.611135067366794   0.388735488227952   0.124848956617547   1.0000000
N2   N   0.777817750094947   0.888965030814746   0.124855780059685   1.0000000
N2   N   0.944442280214591   0.388857579751092   0.124854387179976   1.0000000
N2   N   0.111093245901510   0.555523459830590   0.625144168390033   1.0000000
N2   N   0.277757762151505   0.055589235435520   0.625080239136394   1.0000000
N2   N   0.777712588715955   0.555522961024089   0.624800805391033   1.0000000
N2   N   0.611133316462963   0.055541119911936   0.625124084238027   1.0000000
N2   N   0.944396616351219   0.055547087175783   0.625252321884597   1.0000000
N2   N   0.051975451567249   0.108851736002588   0.375000000000000   1.0000000
N2   N   0.555941705331156   0.596676561845899   0.375000000000000   1.0000000
N2   N   0.389802312124184   0.116254404323285   0.375000000000000   1.0000000
N2   N   0.896107089779584   0.614720211556542   0.375000000000000   1.0000000
N2   N   0.720426655202153   0.111585450602304   0.375000000000000   1.0000000
N2   N   0.055471806674603   0.777733612511357   0.875000000000000   1.0000000
N2   N   0.388788819858634   0.777737249487055   0.875000000000000   1.0000000
N2   N   0.222138985826294   0.277736159579795   0.875000000000000   1.0000000
N2   N   0.722135461502968   0.777720329039218   0.875000000000000   1.0000000
N2   N   0.555450891442987   0.277714032755587   0.875000000000000   1.0000000
N2   N   0.888809939873869   0.277750750770274   0.875000000000000   1.0000000
N2   N   0.225445932182557   0.779389632757983   0.375000000000000   1.0000000
N2   N   0.051975451567249   0.276457048897998   0.375000000000000   1.0000000
N2   N   0.382498349012912   0.279468973573187   0.375000000000000   1.0000000
N2   N   0.555676361938827   0.772028472733087   0.375000000000000   1.0000000
N2   N   0.891185280273300   0.778111387000836   0.375000000000000   1.0000000
N2   N   0.721143489835144   0.280814850112480   0.375000000000000   1.0000000
N2   N   0.055478962093101   0.944400877777123   0.875000000000000   1.0000000
N2   N   0.388788819858634   0.944384903704836   0.875000000000000   1.0000000
N2   N   0.222146351938685   0.444416227853503   0.875000000000000   1.0000000
N2   N   0.555474351448715   0.444403842391022   0.875000000000000   1.0000000
N2   N   0.722132787881208   0.944394313599622   0.875000000000000   1.0000000
N2   N   0.888809360745736   0.444413788883970   0.875000000000000   1.0000000
N2   N   0.055690432620793   0.444700358462008   0.375000000000000   1.0000000
N2   N   0.224432469550119   0.946546060338989   0.375000000000000   1.0000000
N2   N   0.555719212443442   0.944526272888226   0.375000000000000   1.0000000
N2   N   0.382498349012912   0.436362708773140   0.375000000000000   1.0000000
N2   N   0.886780188404546   0.942178354865003   0.375000000000000   1.0000000
N2   N   0.727905792733886   0.449957114828994   0.375000000000000   1.0000000
N2   N   0.222131221933003   0.611075471705821   0.875000000000000   1.0000000
N2   N   0.055478382016072   0.111063836903164   0.875000000000000   1.0000000
N2   N   0.555450891442987   0.611070192021289   0.875000000000000   1.0000000
N2   N   0.388794500105258   0.111041799522132   0.875000000000000   1.0000000
N2   N   0.888806996919297   0.611070165126001   0.875000000000000   1.0000000
N2   N   0.059659890792647   0.612869317167307   0.375000000000000   1.0000000
N2   N   0.722132787881208   0.111071807615201   0.875000000000000   1.0000000
N2   N   0.220267537732570   0.110470853787306   0.375000000000000   1.0000000
N2   N   0.389802312124184   0.606881241134204   0.375000000000000   1.0000000
N2   N   0.727905792733886   0.611282011237908   0.375000000000000   1.0000000
N2   N   0.555676361938827   0.116981222539059   0.375000000000000   1.0000000
N2   N   0.388794500105258   0.611086033916627   0.875000000000000   1.0000000
N2   N   0.885896614279101   0.109614973806082   0.375000000000000   1.0000000
N2   N   0.222124781330420   0.777729057332001   0.875000000000000   1.0000000
N2   N   0.055478382016072   0.277747878446373   0.875000000000000   1.0000000
N2   N   0.388802376679675   0.277729137498614   0.875000000000000   1.0000000
N2   N   0.555456037104342   0.777734843129272   0.875000000000000   1.0000000
N2   N   0.888809360745736   0.777728905195107   0.875000000000000   1.0000000
N2   N   0.722135461502968   0.277748465797091   0.875000000000000   1.0000000
N2   N   0.059659890792637   0.780123906958430   0.375000000000000   1.0000000
N2   N   0.390827238552139   0.777129500579979   0.375000000000000   1.0000000
N2   N   0.215912593945859   0.274622963639578   0.375000000000000   1.0000000
N2   N   0.721143489835144   0.773661973056239   0.375000000000000   1.0000000
N2   N   0.555941705331156   0.292598476818990   0.375000000000000   1.0000000
N2   N   0.886780188404546   0.277935166872482   0.375000000000000   1.0000000
N2   N   0.055478962093101   0.444411417649396   0.875000000000000   1.0000000
N2   N   0.222131221933003   0.944389083561076   0.875000000000000   1.0000000
N2   N   0.555456044610435   0.944394688971958   0.875000000000000   1.0000000
N2   N   0.388802376679675   0.444406572514158   0.875000000000000   1.0000000
N2   N   0.888809939873869   0.944392522437086   0.875000000000000   1.0000000
N2   N   0.055690432620764   0.944323407492095   0.375000000000000   1.0000000
N2   N   0.722134655608548   0.444407506889954   0.875000000000000   1.0000000
N2   N   0.390827238552139   0.947031071305735   0.375000000000000   1.0000000
N2   N   0.220267537732570   0.443130017278758   0.375000000000000   1.0000000
N2   N   0.224432469550119   0.611219742544219   0.375000000000000   1.0000000
N2   N   0.720426655202153   0.942174537934082   0.375000000000000   1.0000000
N2   N   0.891185280273300   0.446407226605721   0.375000000000000   1.0000000
N2   N   0.055471806674603   0.611071527495989   0.875000000000000   1.0000000
N2   N   0.222146351938685   0.111063457418500   0.875000000000000   1.0000000
N2   N   0.722134655608548   0.611060482052170   0.875000000000000   1.0000000
N2   N   0.555456037104342   0.111054527308386   0.875000000000000   1.0000000
N2   N   0.888809651366547   0.111071492349904   0.875000000000000   1.0000000
B2   B   0.109783912432948   0.055119041700739   0.375000000000000   1.0000000
B2   B   0.615654833705324   0.533529779311039   0.375000000000000   1.0000000
B2   B   0.444892221471523   0.060018944866090   0.375000000000000   1.0000000
B2   B   0.948709942665934   0.557414743657425   0.375000000000000   1.0000000
B2   B   0.774780121602797   0.054056727468015   0.375000000000000   1.0000000
B2   B   0.111004630706571   0.722168982019850   0.875000000000000   1.0000000
B2   B   0.444350053000750   0.722127317971655   0.875000000000000   1.0000000
B2   B   0.277808068351942   0.222256333641106   0.875000000000000   1.0000000
B2   B   0.777606982415200   0.722058065696425   0.875000000000000   1.0000000
B2   B   0.610976019433202   0.222241591850247   0.875000000000000   1.0000000
B2   B   0.944383132006072   0.222212643988424   0.875000000000000   1.0000000
B2   B   0.280075895597394   0.722471657937373   0.375000000000000   1.0000000
B2   B   0.106909100796421   0.220121217064944   0.375000000000000   1.0000000
B2   B   0.444519460870291   0.230757966788768   0.375000000000000   1.0000000
B2   B   0.609136035810672   0.710244344184802   0.375000000000000   1.0000000
B2   B   0.948709942665934   0.724628532341846   0.375000000000000   1.0000000
B2   B   0.774997861165552   0.223558089080686   0.375000000000000   1.0000000
B2   B   0.111028898396539   0.888843257697758   0.875000000000000   1.0000000
B2   B   0.444331960957352   0.888832647144982   0.875000000000000   1.0000000
B2   B   0.277808068351942   0.388885068044046   0.875000000000000   1.0000000
B2   B   0.610963517274005   0.388877328317472   0.875000000000000   1.0000000
B2   B   0.777651215967031   0.888756943021848   0.875000000000000   1.0000000
B2   B   0.944345016669181   0.388887180537063   0.875000000000000   1.0000000
B2   B   0.109783912432948   0.387998204065528   0.375000000000000   1.0000000
B2   B   0.280075895597394   0.890937570993105   0.375000000000000   1.0000000
B2   B   0.609511317226309   0.884925950778720   0.375000000000000   1.0000000
B2   B   0.944411739789661   0.888221512162592   0.375000000000000   1.0000000
B2   B   0.778997638882492   0.392549803698651   0.375000000000000   1.0000000
B2   B   0.277750084737429   0.555510639480610   0.875000000000000   1.0000000
B2   B   0.111088257142104   0.055539741221814   0.875000000000000   1.0000000
B2   B   0.610963517274005   0.555419522289859   0.875000000000000   1.0000000
B2   B   0.444350053000750   0.055556068361964   0.875000000000000   1.0000000
B2   B   0.944300646709731   0.555508675665809   0.875000000000000   1.0000000
B2   B   0.113502800005831   0.556041053924591   0.375000000000000   1.0000000
B2   B   0.777673344992355   0.055503339162728   0.875000000000000   1.0000000
B2   B   0.278973372679814   0.058333155853801   0.375000000000000   1.0000000
B2   B   0.444519460870291   0.547094827414584   0.375000000000000   1.0000000
B2   B   0.785627333663641   0.559480333498646   0.375000000000000   1.0000000
B2   B   0.609511317226309   0.057918699780996   0.375000000000000   1.0000000
B2   B   0.444384213716995   0.555463988154892   0.875000000000000   1.0000000
B2   B   0.941266515561713   0.053349712120726   0.375000000000000   1.0000000
B2   B   0.277700569729710   0.722173166478807   0.875000000000000   1.0000000
B2   B   0.111107987534292   0.222220660433760   0.875000000000000   1.0000000
B2   B   0.444384213716995   0.222253558895317   0.875000000000000   1.0000000
B2   B   0.610976019433202   0.722067760916800   0.875000000000000   1.0000000
B2   B   0.944300646709731   0.722125304377727   0.875000000000000   1.0000000
B2   B   0.777651215967031   0.222227606278474   0.875000000000000   1.0000000
B2   B   0.114581715085203   0.723957524209486   0.375000000000000   1.0000000
B2   B   0.444892221471523   0.718206609938482   0.375000000000000   1.0000000
B2   B   0.274132162041255   0.221785094723303   0.375000000000000   1.0000000
B2   B   0.778997638882492   0.719781168517250   0.375000000000000   1.0000000
B2   B   0.609136035810672   0.232225024958804   0.375000000000000   1.0000000
B2   B   0.941266515561713   0.221250136774167   0.375000000000000   1.0000000
B2   B   0.111088257142104   0.388881849253588   0.875000000000000   1.0000000
B2   B   0.277700569729710   0.888860736584546   0.875000000000000   1.0000000
B2   B   0.610989992511609   0.888789020737197   0.875000000000000   1.0000000
B2   B   0.444432664805447   0.388882999069666   0.875000000000000   1.0000000
B2   B   0.944345016669181   0.888791169465447   0.875000000000000   1.0000000
B2   B   0.113502800005831   0.890795079414674   0.375000000000000   1.0000000
B2   B   0.777606982415200   0.388882250052418   0.875000000000000   1.0000000
B2   B   0.445115419122890   0.889224376228032   0.375000000000000   1.0000000
B2   B   0.274132162041255   0.385680400651160   0.375000000000000   1.0000000
B2   B   0.278973372679814   0.553973550159308   0.375000000000000   1.0000000
B2   B   0.615654833705324   0.415458387727926   0.375000000000000   1.0000000
B2   B   0.774997861165552   0.884773105418675   0.375000000000000   1.0000000
B2   B   0.944411739789661   0.389523560960715   0.375000000000000   1.0000000
B2   B   0.111028898396539   0.555518974032386   0.875000000000000   1.0000000
B2   B   0.277750084737429   0.055572778590204   0.875000000000000   1.0000000
B2   B   0.777576495138859   0.555454914235618   0.875000000000000   1.0000000
B2   B   0.610989992511609   0.055534305107423   0.875000000000000   1.0000000
B2   B   0.944383132006072   0.055503821350845   0.875000000000000   1.0000000
B2   B   0.055556349540726   0.111169715622865   0.125127995230675   1.0000000
B2   B   0.555647699213822   0.610881159134323   0.126013042949666   1.0000000
B2   B   0.389046771244227   0.111493544420855   0.125533863384994   1.0000000
B2   B   0.888514482080258   0.610923907707035   0.125599402607303   1.0000000
B2   B   0.722224903407757   0.111153220392485   0.125221735358413   1.0000000
B2   B   0.055413323118263   0.777736886906050   0.624747285914597   1.0000000
B2   B   0.388981900661983   0.777720028687186   0.624826141914216   1.0000000
B2   B   0.222329432627329   0.277831382980291   0.624454129950685   1.0000000
B2   B   0.722132870485090   0.777658666795633   0.624530536479117   1.0000000
B2   B   0.555647699213822   0.278099873413232   0.623986957050253   1.0000000
B2   B   0.888833312803498   0.277746344287627   0.624820716087148   1.0000000
B2   B   0.222241381329003   0.777787357331090   0.125167640332319   1.0000000
B2   B   0.055556349540726   0.277719967251128   0.125127995230675   1.0000000
B2   B   0.389131202399141   0.278155637988481   0.126808025063936   1.0000000
B2   B   0.555650394693129   0.777665655720112   0.125331303581479   1.0000000
B2   B   0.888687978061329   0.777665266988746   0.125415105829969   1.0000000
B2   B   0.722132870485090   0.277807537022793   0.125469463521083   1.0000000
B2   B   0.055517198553769   0.944490372405859   0.624798697871389   1.0000000
B2   B   0.388981900661982   0.944595205307652   0.624826141914216   1.0000000
B2   B   0.222356424630456   0.444321818266814   0.624540806476961   1.0000000
B2   B   0.555614899454447   0.444474116393888   0.620719727957918   1.0000000
B2   B   0.722224903407757   0.944405016348429   0.624778264641391   1.0000000
B2   B   0.888687978061329   0.444356044405916   0.624584894169674   1.0000000
B2   B   0.055517198553769   0.444360159481504   0.125201302129007   1.0000000
B2   B   0.222275877242044   0.944616453812163   0.125221903418498   1.0000000
B2   B   0.555620725685813   0.944477029509251   0.125202720409653   1.0000000
B2   B   0.389131202399141   0.444308897744231   0.126808025063936   1.0000000
B2   B   0.888833312803498   0.944420301849364   0.125179283912691   1.0000000
B2   B   0.721835324232053   0.444307944371987   0.126187627551410   1.0000000
B2   B   0.222275877242044   0.610992756763299   0.624778096581185   1.0000000
B2   B   0.055556349540726   0.111169715622865   0.624872004769448   1.0000000
B2   B   0.555647699213822   0.610881159134323   0.623986957050253   1.0000000
B2   B   0.389046771244227   0.111493544420855   0.624466136614808   1.0000000
B2   B   0.888514482080258   0.610923907707035   0.624400597392339   1.0000000
B2   B   0.055413323118263   0.611009769545398   0.125252714085084   1.0000000
B2   B   0.722224903407757   0.111153220392485   0.624778264641391   1.0000000
B2   B   0.222356424630456   0.111367939696800   0.125459193522840   1.0000000
B2   B   0.389046771244227   0.610886560156779   0.125533863384994   1.0000000
B2   B   0.721835324232053   0.610860713193247   0.126187627551410   1.0000000
B2   B   0.555650394693129   0.111318072306011   0.125331303581479   1.0000000
B2   B   0.389046771244227   0.610886560156779   0.624466136614808   1.0000000
B2   B   0.888886905413694   0.111110119373379   0.125104985436384   1.0000000
B2   B   0.222241381329003   0.777787357331090   0.624832359667405   1.0000000
B2   B   0.055556349540726   0.277719967251128   0.624872004769448   1.0000000
B2   B   0.389131202399141   0.278155637988481   0.623191974935945   1.0000000
B2   B   0.555650394693129   0.777665655720112   0.624668696418324   1.0000000
B2   B   0.888687978061329   0.777665266988746   0.624584894169674   1.0000000
B2   B   0.722132870485090   0.277807537022793   0.624530536479117   1.0000000
B2   B   0.055413323118263   0.777736886906050   0.125252714085084   1.0000000
B2   B   0.388981900661983   0.777720028687186   0.125173858085822   1.0000000
B2   B   0.222329432627329   0.277831382980291   0.125545870049511   1.0000000
B2   B   0.722132870485090   0.777658666795633   0.125469463521083   1.0000000
B2   B   0.555647699213822   0.278099873413232   0.126013042949666   1.0000000
B2   B   0.888833312803498   0.277746344287627   0.125179283912691   1.0000000
B2   B   0.055517198553769   0.444360159481504   0.624798697871389   1.0000000
B2   B   0.222275877242044   0.944616453812163   0.624778096581185   1.0000000
B2   B   0.555620725685813   0.944477029509251   0.624797279590506   1.0000000
B2   B   0.389131202399141   0.444308897744231   0.623191974935945   1.0000000
B2   B   0.888833312803498   0.944420301849364   0.624820716087148   1.0000000
B2   B   0.055517198553769   0.944490372405859   0.125201302129007   1.0000000
B2   B   0.721835324232053   0.444307944371987   0.623812372448548   1.0000000
B2   B   0.388981900661982   0.944595205307652   0.125173858085822   1.0000000
B2   B   0.222356424630456   0.444321818266814   0.125459193522840   1.0000000
B2   B   0.222275877242044   0.610992756763299   0.125221903418498   1.0000000
B2   B   0.555614899454447   0.444474116393888   0.129280272042360   1.0000000
B2   B   0.722224903407757   0.944405016348429   0.125221735358413   1.0000000
B2   B   0.888687978061329   0.444356044405916   0.125415105829969   1.0000000
B2   B   0.055413323118263   0.611009769545398   0.624747285914597   1.0000000
B2   B   0.222356424630456   0.111367939696800   0.624540806476961   1.0000000
B2   B   0.721835324232053   0.610860713193247   0.623812372448548   1.0000000
B2   B   0.555650394693129   0.111318072306011   0.624668696418324   1.0000000
B2   B   0.888886905413694   0.111110119373379   0.624895014563456   1.0000000


