data_1
_audit_creation_method   'vasp2cif'
_cell_length_a    17.52789999999977
_cell_length_b    17.52789999999977
_cell_length_c    15.0
_cell_angle_alpha    90.0
_cell_angle_beta    90.0
_cell_angle_gamma    119.99999999999916

_symmetry_space_group_name_H-M    'P 1'
loop_
_atom_site_label
_atom_site_type_symbol
_atom_site_fract_x
_atom_site_fract_y
_atom_site_fract_z
_atom_site_occupancy
As2   As   0.503934913197334   0.496066488719663   0.178486607679723   1.0000000
B2   B   0.905838376115618   0.953080665395454   0.102962761063310   1.0000000
B2   B   0.904581631270723   0.095420389925266   0.105282266608441   1.0000000
B2   B   0.904075221186062   0.238182843158810   0.107017658562810   1.0000000
B2   B   0.903958589673643   0.380949159105448   0.107879061900441   1.0000000
B2   B   0.904736996558320   0.523757343363620   0.107718680932059   1.0000000
B2   B   0.906296712620829   0.666935927670913   0.106116744695896   1.0000000
B2   B   0.907094657710196   0.810720667900213   0.102349941631751   1.0000000
B2   B   0.048242019245656   0.951760001950376   0.103660534515939   1.0000000
B2   B   0.046921355800578   0.094163645080393   0.102962761063310   1.0000000
B2   B   0.046538210725991   0.237316823285397   0.104245641612820   1.0000000
B2   B   0.046838466705935   0.380351365569098   0.106521259205905   1.0000000
B2   B   0.047798838362951   0.523142332471416   0.107698345245488   1.0000000
B2   B   0.048757195324320   0.665991997605921   0.107259792703012   1.0000000
B2   B   0.048880843510908   0.809001581108518   0.105455093918735   1.0000000
B2   B   0.191000440087436   0.951121177685131   0.105455093918735   1.0000000
B2   B   0.189281353295804   0.092907363485764   0.102349941631751   1.0000000
B2   B   0.187886406753769   0.235244737077714   0.102690584481394   1.0000000
B2   B   0.189048676920805   0.379389440248765   0.107482155330274   1.0000000
B2   B   0.190823229561971   0.522416139977700   0.110316545229629   1.0000000
B2   B   0.191911171889409   0.665407116743864   0.109800174930207   1.0000000
B2   B   0.191617465248690   0.808384555947349   0.107996184392427   1.0000000
B2   B   0.334010023591119   0.951244825871697   0.107259792703012   1.0000000
B2   B   0.333066093526099   0.093705308575146   0.106116744695896   1.0000000
B2   B   0.329474375772122   0.233551673864873   0.109974069275339   1.0000000
B2   B   0.327638796588715   0.376198232632468   0.121680262643487   1.0000000
B2   B   0.333878196686051   0.519990690687358   0.123085546391117   1.0000000
B2   B   0.335512440915842   0.664489580281177   0.115048228760969   1.0000000
B2   B   0.334594904453155   0.808090849306630   0.109800174930207   1.0000000
B2   B   0.476859688725575   0.952203182833067   0.107698345245488   1.0000000
B2   B   0.476244677833407   0.095265024637683   0.107718680932059   1.0000000
B2   B   0.475075411948943   0.237918186355103   0.114367497883570   1.0000000
B2   B   0.465050474439486   0.370607717546164   0.145654303609724   1.0000000
B2   B   0.480011330509683   0.666123824510954   0.123085546391117   1.0000000
B2   B   0.477585881219312   0.809178791634046   0.110316545229629   1.0000000
B2   B   0.619650655626941   0.953163554490082   0.106521259205905   1.0000000
B2   B   0.619052862090591   0.096043431522347   0.107879061900441   1.0000000
B2   B   0.618387840162796   0.239328785529573   0.111628224895320   1.0000000
B2   B   0.617101774926546   0.382900246269387   0.124186556174422   1.0000000
B2   B   0.629394303649832   0.534951546757512   0.145654303609724   1.0000000
B2   B   0.623803788563528   0.672363224608269   0.121680262643487   1.0000000
B2   B   0.620612580947224   0.810953344275177   0.107482155330274   1.0000000
B2   B   0.762685197910621   0.953463810470005   0.104245641612820   1.0000000
B2   B   0.761819178037207   0.095926800009949   0.107017658562810   1.0000000
B2   B   0.761263237202577   0.238738783993391   0.108953034301997   1.0000000
B2   B   0.760673235666438   0.381614181033193   0.111628224895320   1.0000000
B2   B   0.762083834840908   0.524926609248055   0.114367497883570   1.0000000
B2   B   0.766450347331165   0.670527645424819   0.109974069275339   1.0000000
B2   B   0.764757284118268   0.812115614442234   0.102690584481394   1.0000000
N2   N   0.953753981581457   0.905481356736914   0.102822943800305   1.0000000
N2   N   0.952265322115615   0.047736079802419   0.104136223687973   1.0000000
N2   N   0.951456962741815   0.190333207208795   0.105774700742643   1.0000000
N2   N   0.951433186443978   0.333192782591091   0.107088926058438   1.0000000
N2   N   0.952265375105789   0.476032293577326   0.107460882942391   1.0000000
N2   N   0.953560183167681   0.618946493926821   0.106653918756784   1.0000000
N2   N   0.954121116815095   0.762235713239299   0.104135392914870   1.0000000
N2   N   0.095984333574535   0.904017068343435   0.105125884411088   1.0000000
N2   N   0.094520045181085   0.046247420336556   0.102822943800305   1.0000000
N2   N   0.093092667611963   0.188603313919671   0.102358523264229   1.0000000
N2   N   0.093559209709461   0.332187813462589   0.105017361221734   1.0000000
N2   N   0.094973698154178   0.475417163742577   0.107591405680111   1.0000000
N2   N   0.096245134052609   0.618342971548365   0.108299407925045   1.0000000
N2   N   0.096418079247329   0.761215917289313   0.107147656631383   1.0000000
N2   N   0.238785484628700   0.903583322670713   0.107147656631383   1.0000000
N2   N   0.237765688678692   0.045880285102903   0.104135392914870   1.0000000
N2   N   0.235020289948793   0.186841323424268   0.101637370845097   1.0000000
N2   N   0.233621353521272   0.329085299688714   0.106267699656676   1.0000000
N2   N   0.237100090818949   0.474389316852928   0.112081886875920   1.0000000
N2   N   0.239324099949812   0.617857724246782   0.111848999164714   1.0000000
N2   N   0.239197087602882   0.760804314315173   0.109489393986841   1.0000000
N2   N   0.381658430369605   0.903756267865397   0.108299407925045   1.0000000
N2   N   0.381054907991178   0.046441218750317   0.106653918756784   1.0000000
N2   N   0.379639130415704   0.188210707974854   0.109092890795274   1.0000000
N2   N   0.373456883561815   0.325367509555406   0.124293505936862   1.0000000
N2   N   0.372348051553409   0.467038031646695   0.133149987894200   1.0000000
N2   N   0.382906111431943   0.617095290485977   0.121839599197564   1.0000000
N2   N   0.382143677671245   0.760677301968165   0.111848999164714   1.0000000
N2   N   0.524584238174384   0.905027703763828   0.107591405680111   1.0000000
N2   N   0.523969108339635   0.047736026812231   0.107460882942391   1.0000000
N2   N   0.523242705875937   0.190582939055346   0.109993306893159   1.0000000
N2   N   0.521093418838269   0.332647325162711   0.126948073782394   1.0000000
N2   N   0.532963370270302   0.627653350364575   0.133149987894200   1.0000000
N2   N   0.525612085064054   0.762901311099057   0.112081886875920   1.0000000
N2   N   0.667813588454408   0.906442192208516   0.105017361221734   1.0000000
N2   N   0.666808619325920   0.048568215474013   0.107088926058438   1.0000000
N2   N   0.666161827644189   0.191403435815857   0.109198458251910   1.0000000
N2   N   0.665275097050070   0.334726304866962   0.115271397933952   1.0000000
N2   N   0.667354076754258   0.478907983078734   0.126948073782394   1.0000000
N2   N   0.674633892361641   0.626544518356184   0.124293505936862   1.0000000
N2   N   0.670916102228290   0.766380048396748   0.106267699656676   1.0000000
N2   N   0.811398087998299   0.906908734306029   0.102358523264229   1.0000000
N2   N   0.809668194709232   0.048544439176219   0.105774700742643   1.0000000
N2   N   0.808959266722724   0.191042135195303   0.107924642317783   1.0000000
N2   N   0.808597966102127   0.333839574272794   0.109198458251910   1.0000000
N2   N   0.809418462862638   0.476758696041038   0.109993306893159   1.0000000
N2   N   0.811790693943145   0.620362271502330   0.109092890795274   1.0000000
N2   N   0.813160078493709   0.764981111969206   0.101637370845097   1.0000000


