data_1
_audit_creation_method   'vasp2cif'
_cell_length_a    14.93631414619966
_cell_length_b    14.936314146199727
_cell_length_c    13.341276283792837
_cell_angle_alpha    90.0
_cell_angle_beta    90.0
_cell_angle_gamma    119.99999999999984

_symmetry_space_group_name_H-M    'P 1'
loop_
_atom_site_label
_atom_site_type_symbol
_atom_site_fract_x
_atom_site_fract_y
_atom_site_fract_z
_atom_site_occupancy
O2   O   0.444336679050865   0.392429048819756   0.375000000000000   1.0000000
N2   N   0.548552861556683   0.439088182898287   0.375000000000000   1.0000000
N2   N   0.111111520346187   0.055534901560238   0.125038293496224   1.0000000
N2   N   0.611090603746798   0.555513262219433   0.125835673825588   1.0000000
N2   N   0.444447735778793   0.055560894906964   0.125012293792489   1.0000000
N2   N   0.944447207548324   0.555547457177506   0.124979279852071   1.0000000
N2   N   0.777778445307775   0.055522123848957   0.124949546799718   1.0000000
N2   N   0.111103696527090   0.722213023048057   0.625046342050640   1.0000000
N2   N   0.444427570571032   0.722209927953983   0.624943687898342   1.0000000
N2   N   0.277777203302610   0.222216545308817   0.624506654353409   1.0000000
N2   N   0.777781510435139   0.722195695007244   0.624877316049393   1.0000000
N2   N   0.611132698647065   0.222216832471327   0.624916655004718   1.0000000
N2   N   0.944454333161100   0.222199297876519   0.625043965356369   1.0000000
N2   N   0.277764952816415   0.722219306340779   0.124976980041853   1.0000000
N2   N   0.111104606048784   0.222194638900542   0.125062571699540   1.0000000
N2   N   0.444450911863012   0.222236303074541   0.125371085338099   1.0000000
N2   N   0.611097754581230   0.722187265609463   0.125142822746244   1.0000000
N2   N   0.944449550387876   0.722212846846817   0.124989365760131   1.0000000
N2   N   0.777795986790360   0.222202000404325   0.124950050940399   1.0000000
N2   N   0.111114896277912   0.888879508044910   0.625021731595997   1.0000000
N2   N   0.444432244864219   0.888886509497100   0.625025652627764   1.0000000
N2   N   0.277776300233184   0.388869325804888   0.624523404848679   1.0000000
N2   N   0.611132545333352   0.388888802188475   0.625107100646131   1.0000000
N2   N   0.777775391516164   0.888853367076178   0.624991383319259   1.0000000
N2   N   0.944451018426533   0.388876213886431   0.625025184781172   1.0000000
N2   N   0.111113595390883   0.388880634264049   0.125046083914386   1.0000000
N2   N   0.277773723137218   0.888888909992362   0.124959668605661   1.0000000
N2   N   0.611098577814980   0.888867465846994   0.124984506640393   1.0000000
N2   N   0.444447535000778   0.388884855757201   0.126409320633007   1.0000000
N2   N   0.944452195257447   0.888867662893585   0.124972712601024   1.0000000
N2   N   0.777798068921635   0.388871982591949   0.125005425942033   1.0000000
N2   N   0.277766815779141   0.555546397323893   0.624904239789971   1.0000000
N2   N   0.111111520346187   0.055534901560238   0.624961706503777   1.0000000
N2   N   0.611090603746798   0.555513262219433   0.624164326174412   1.0000000
N2   N   0.444447735778793   0.055560894906964   0.624987706207511   1.0000000
N2   N   0.944447207548324   0.555547457177506   0.625020720147930   1.0000000
N2   N   0.111101782969180   0.555550642580501   0.124982743856094   1.0000000
N2   N   0.777778445307775   0.055522123848957   0.625050453200282   1.0000000
N2   N   0.277779025416605   0.055553343600221   0.125066915742112   1.0000000
N2   N   0.444447771579194   0.555541387437987   0.125521473488317   1.0000000
N2   N   0.777782163592994   0.555558166831210   0.125180516798549   1.0000000
N2   N   0.611110208396813   0.055546593006368   0.124976954561407   1.0000000
N2   N   0.444447771579194   0.555541387437987   0.624478526511683   1.0000000
N2   N   0.944448565631613   0.055521473664453   0.124961316769910   1.0000000
N2   N   0.277764952816415   0.722219306340779   0.625023019958147   1.0000000
N2   N   0.111104606048784   0.222194638900542   0.624937428300460   1.0000000
N2   N   0.444450911863012   0.222236303074541   0.624628914661901   1.0000000
N2   N   0.611097754581230   0.722187265609463   0.624857177253756   1.0000000
N2   N   0.944449550387876   0.722212846846817   0.625010634239869   1.0000000
N2   N   0.777795986790360   0.222202000404325   0.625049949059602   1.0000000
N2   N   0.111103696527090   0.722213023048057   0.124953657949359   1.0000000
N2   N   0.444427570571032   0.722209927953983   0.125056312101657   1.0000000
N2   N   0.277777203302610   0.222216545308817   0.125493345646591   1.0000000
N2   N   0.777781510435139   0.722195695007244   0.125122683950607   1.0000000
N2   N   0.611132698647065   0.222216832471327   0.125083344995283   1.0000000
N2   N   0.944454333161100   0.222199297876519   0.124956034643631   1.0000000
N2   N   0.111113595390883   0.388880634264049   0.624953916085613   1.0000000
N2   N   0.277773723137218   0.888888909992362   0.625040331394339   1.0000000
N2   N   0.611098577814980   0.888867465846994   0.625015493359607   1.0000000
N2   N   0.444447535000778   0.388884855757201   0.623590679366992   1.0000000
N2   N   0.944452195257447   0.888867662893585   0.625027287398976   1.0000000
N2   N   0.111114896277912   0.888879508044910   0.124978268404002   1.0000000
N2   N   0.777798068921635   0.388871982591949   0.624994574057967   1.0000000
N2   N   0.444432244864219   0.888886509497100   0.124974347372236   1.0000000
N2   N   0.277776300233184   0.388869325804888   0.125476595151321   1.0000000
N2   N   0.277766815779141   0.555546397323893   0.125095760210030   1.0000000
N2   N   0.611132545333352   0.388888802188475   0.124892899353868   1.0000000
N2   N   0.777775391516164   0.888853367076178   0.125008616680741   1.0000000
N2   N   0.944451018426533   0.388876213886431   0.124974815218828   1.0000000
N2   N   0.111101782969180   0.555550642580501   0.625017256143906   1.0000000
N2   N   0.277779025416605   0.055553343600221   0.624933084257889   1.0000000
N2   N   0.777782163592994   0.555558166831210   0.624819483201450   1.0000000
N2   N   0.611110208396813   0.055546593006368   0.625023045438593   1.0000000
N2   N   0.944448565631613   0.055521473664453   0.625038683230089   1.0000000
N2   N   0.055193038813277   0.110681830320364   0.375000000000000   1.0000000
N2   N   0.554420463809822   0.611089354721039   0.375000000000000   1.0000000
N2   N   0.389951288991490   0.114412623823583   0.375000000000000   1.0000000
N2   N   0.888643912053004   0.610933214706772   0.375000000000000   1.0000000
N2   N   0.722718306902266   0.110094788880682   0.375000000000000   1.0000000
N2   N   0.055551795379378   0.777774134725998   0.875000000000000   1.0000000
N2   N   0.388888279907307   0.777781924945013   0.875000000000000   1.0000000
N2   N   0.222219500738206   0.277776910057069   0.875000000000000   1.0000000
N2   N   0.722219821809380   0.777777520416805   0.875000000000000   1.0000000
N2   N   0.555556397709606   0.277775060195333   0.875000000000000   1.0000000
N2   N   0.888882423739088   0.277777106696030   0.875000000000000   1.0000000
N2   N   0.222520313038110   0.778839217059621   0.375000000000000   1.0000000
N2   N   0.055533613054158   0.277612036686858   0.375000000000000   1.0000000
N2   N   0.388156445974865   0.279185472718020   0.375000000000000   1.0000000
N2   N   0.555088319520652   0.777700506748294   0.375000000000000   1.0000000
N2   N   0.887412514424980   0.776459917009211   0.375000000000000   1.0000000
N2   N   0.724581289237142   0.276368412949412   0.375000000000000   1.0000000
N2   N   0.055551450340380   0.944444983704127   0.875000000000000   1.0000000
N2   N   0.388890742349863   0.944445970159576   0.875000000000000   1.0000000
N2   N   0.222213671506852   0.444442098795806   0.875000000000000   1.0000000
N2   N   0.555546561851709   0.444443453768718   0.875000000000000   1.0000000
N2   N   0.722220696174584   0.944447990214768   0.875000000000000   1.0000000
N2   N   0.888890209618976   0.444442006301465   0.875000000000000   1.0000000
N2   N   0.056536185119297   0.444741786424140   0.375000000000000   1.0000000
N2   N   0.222926571520541   0.946097584011122   0.375000000000000   1.0000000
N2   N   0.555544815185321   0.944398917572006   0.375000000000000   1.0000000
N2   N   0.385645527879064   0.446193320014392   0.375000000000000   1.0000000
N2   N   0.888431358506834   0.943558539125958   0.375000000000000   1.0000000
N2   N   0.733858537271996   0.447778886137633   0.375000000000000   1.0000000
N2   N   0.222217108367072   0.611107034876153   0.875000000000000   1.0000000
N2   N   0.055545089733514   0.111103732523768   0.875000000000000   1.0000000
N2   N   0.555556482756362   0.611111139597201   0.875000000000000   1.0000000
N2   N   0.388888237764551   0.111107359648570   0.875000000000000   1.0000000
N2   N   0.888883583959196   0.611105901338048   0.875000000000000   1.0000000
N2   N   0.055908694384127   0.611656712666651   0.375000000000000   1.0000000
N2   N   0.722216879648324   0.111107347886355   0.875000000000000   1.0000000
N2   N   0.223466182858476   0.113247219901996   0.375000000000000   1.0000000
N2   N   0.388220232576146   0.611013929617465   0.375000000000000   1.0000000
N2   N   0.717840639492160   0.607581868343882   0.375000000000000   1.0000000
N2   N   0.556265953760864   0.111026351484790   0.375000000000000   1.0000000
N2   N   0.388890670904884   0.611107557246170   0.875000000000000   1.0000000
N2   N   0.888967318399892   0.110341429006232   0.375000000000000   1.0000000
N2   N   0.222219844603904   0.777773533697493   0.875000000000000   1.0000000
N2   N   0.055547261890463   0.277770691932603   0.875000000000000   1.0000000
N2   N   0.388889029832735   0.277775621644669   0.875000000000000   1.0000000
N2   N   0.555552034004437   0.777778481768962   0.875000000000000   1.0000000
N2   N   0.888888654069404   0.777778346068191   0.875000000000000   1.0000000
N2   N   0.722218308644461   0.277772649168676   0.875000000000000   1.0000000
N2   N   0.055547312482457   0.778257734326124   0.375000000000000   1.0000000
N2   N   0.388861878848267   0.778415846351802   0.375000000000000   1.0000000
N2   N   0.220630687527621   0.277614633942752   0.375000000000000   1.0000000
N2   N   0.721339929638109   0.776655715444824   0.375000000000000   1.0000000
N2   N   0.554586097837563   0.270330717691300   0.375000000000000   1.0000000
N2   N   0.890010917632734   0.277294093793113   0.375000000000000   1.0000000
N2   N   0.055550988590768   0.444442027158665   0.875000000000000   1.0000000
N2   N   0.222218960996522   0.944438792020181   0.875000000000000   1.0000000
N2   N   0.555553300158109   0.944442916181276   0.875000000000000   1.0000000
N2   N   0.388887115734706   0.444441793136787   0.875000000000000   1.0000000
N2   N   0.888883721079643   0.944440899632895   0.875000000000000   1.0000000
N2   N   0.055563099348541   0.944727462198484   0.375000000000000   1.0000000
N2   N   0.722224394232148   0.444440285397577   0.875000000000000   1.0000000
N2   N   0.389337436963315   0.946050637158204   0.375000000000000   1.0000000
N2   N   0.222557347882718   0.444881691838576   0.375000000000000   1.0000000
N2   N   0.222343563065492   0.611742106455313   0.375000000000000   1.0000000
N2   N   0.721998679628660   0.943538332238260   0.375000000000000   1.0000000
N2   N   0.891007116596021   0.444470239822910   0.375000000000000   1.0000000
N2   N   0.055547848108716   0.611104784591259   0.875000000000000   1.0000000
N2   N   0.222216282902659   0.111107361659439   0.875000000000000   1.0000000
N2   N   0.722215503227230   0.611106714218845   0.875000000000000   1.0000000
N2   N   0.555554686547626   0.111104986577902   0.875000000000000   1.0000000
N2   N   0.888886085899865   0.111108789281621   0.875000000000000   1.0000000
B2   B   0.111035533597375   0.055779443049471   0.375000000000000   1.0000000
B2   B   0.607802124290350   0.555493676435208   0.375000000000000   1.0000000
B2   B   0.445347805629227   0.057329024229447   0.375000000000000   1.0000000
B2   B   0.944812792658466   0.555579211022600   0.375000000000000   1.0000000
B2   B   0.777935148376872   0.054591988874861   0.375000000000000   1.0000000
B2   B   0.111259184598041   0.722397979992740   0.875000000000000   1.0000000
B2   B   0.444476611650727   0.722098752632810   0.875000000000000   1.0000000
B2   B   0.277587648813421   0.222171909139288   0.875000000000000   1.0000000
B2   B   0.777611321548283   0.722204100946857   0.875000000000000   1.0000000
B2   B   0.611280634579506   0.222397911646189   0.875000000000000   1.0000000
B2   B   0.944446897864659   0.222056908389457   0.875000000000000   1.0000000
B2   B   0.277760606103877   0.723116570687626   0.375000000000000   1.0000000
B2   B   0.109023482153024   0.221044805138800   0.375000000000000   1.0000000
B2   B   0.448195698427247   0.226650498450500   0.375000000000000   1.0000000
B2   B   0.611077353097594   0.723425702228259   0.375000000000000   1.0000000
B2   B   0.944252777979557   0.722103686969612   0.375000000000000   1.0000000
B2   B   0.779346608231428   0.220819826559919   0.375000000000000   1.0000000
B2   B   0.110923149975765   0.888848559678441   0.875000000000000   1.0000000
B2   B   0.444601665491947   0.889077204554990   0.875000000000000   1.0000000
B2   B   0.277775016781744   0.388733331683525   0.875000000000000   1.0000000
B2   B   0.610957535435017   0.388842740145288   0.875000000000000   1.0000000
B2   B   0.777810564101459   0.888753487371902   0.875000000000000   1.0000000
B2   B   0.944582915093609   0.389066968159358   0.875000000000000   1.0000000
B2   B   0.110785765861795   0.388617480719689   0.375000000000000   1.0000000
B2   B   0.278215982640460   0.890093821629322   0.375000000000000   1.0000000
B2   B   0.611073986991376   0.889047018319818   0.375000000000000   1.0000000
B2   B   0.943883657942724   0.888132233934974   0.375000000000000   1.0000000
B2   B   0.779866031848574   0.386175722991365   0.375000000000000   1.0000000
B2   B   0.277906026886666   0.555737885904047   0.875000000000000   1.0000000
B2   B   0.111113044369662   0.055381615069714   0.875000000000000   1.0000000
B2   B   0.611157543138928   0.555417538978761   0.875000000000000   1.0000000
B2   B   0.444271627975935   0.055514431232516   0.875000000000000   1.0000000
B2   B   0.944258302466026   0.555518828633467   0.875000000000000   1.0000000
B2   B   0.111199890930094   0.556009966057154   0.375000000000000   1.0000000
B2   B   0.777924573647421   0.055741431390281   0.875000000000000   1.0000000
B2   B   0.278656601020226   0.057128828404541   0.375000000000000   1.0000000
B2   B   0.445059040406802   0.558195940425614   0.375000000000000   1.0000000
B2   B   0.776697872085615   0.555107934248807   0.375000000000000   1.0000000
B2   B   0.611748191302847   0.055236906479093   0.375000000000000   1.0000000
B2   B   0.444273678239545   0.555551539906442   0.875000000000000   1.0000000
B2   B   0.943884591209910   0.054576270811099   0.375000000000000   1.0000000
B2   B   0.277591461956087   0.722203765486909   0.875000000000000   1.0000000
B2   B   0.111220121186747   0.222377440235415   0.875000000000000   1.0000000
B2   B   0.444491796260909   0.222053597165484   0.875000000000000   1.0000000
B2   B   0.611274824318942   0.722425885927315   0.875000000000000   1.0000000
B2   B   0.944472136793722   0.722061180512202   0.875000000000000   1.0000000
B2   B   0.777586781170910   0.222190456686786   0.875000000000000   1.0000000
B2   B   0.111320562347337   0.722859511568797   0.375000000000000   1.0000000
B2   B   0.444207248541014   0.723069035577563   0.375000000000000   1.0000000
B2   B   0.275474397884400   0.223475660038589   0.375000000000000   1.0000000
B2   B   0.776158225526009   0.720607121025434   0.375000000000000   1.0000000
B2   B   0.615147618120751   0.222206761141136   0.375000000000000   1.0000000
B2   B   0.944460615100623   0.221368353929183   0.375000000000000   1.0000000
B2   B   0.110901434272906   0.388857804804439   0.875000000000000   1.0000000
B2   B   0.277804868224520   0.888726993495024   0.875000000000000   1.0000000
B2   B   0.610935296660393   0.888884039981273   0.875000000000000   1.0000000
B2   B   0.444602866193797   0.389056404897125   0.875000000000000   1.0000000
B2   B   0.944592595489068   0.889067237118475   0.875000000000000   1.0000000
B2   B   0.111400466723058   0.889500879934772   0.375000000000000   1.0000000
B2   B   0.777809421779939   0.388725166061721   0.875000000000000   1.0000000
B2   B   0.444551170165815   0.889849694617348   0.375000000000000   1.0000000
B2   B   0.273837949589005   0.386601598246877   0.375000000000000   1.0000000
B2   B   0.277129087133919   0.556198635704521   0.375000000000000   1.0000000
B2   B   0.777534856348183   0.888272471935940   0.375000000000000   1.0000000
B2   B   0.945642079205926   0.388442980095032   0.375000000000000   1.0000000
B2   B   0.111122227913088   0.555397917996860   0.875000000000000   1.0000000
B2   B   0.277928657013528   0.055715039163615   0.875000000000000   1.0000000
B2   B   0.777946636151884   0.555724708723834   0.875000000000000   1.0000000
B2   B   0.611144092172178   0.055402260539368   0.875000000000000   1.0000000
B2   B   0.944245656570383   0.055522864120028   0.875000000000000   1.0000000
B2   B   0.055483109447188   0.111014413235621   0.125056011574983   1.0000000
B2   B   0.555634937962070   0.611185856435590   0.125154794277355   1.0000000
B2   B   0.388901338465855   0.111042537856070   0.125077461469571   1.0000000
B2   B   0.888936952967202   0.611102534769309   0.125116702971140   1.0000000
B2   B   0.722231524692816   0.111107853437878   0.125058784920297   1.0000000
B2   B   0.055560862784177   0.777748999995895   0.624920953130477   1.0000000
B2   B   0.388840583032699   0.777830055842006   0.624909484315244   1.0000000
B2   B   0.222099748905784   0.277675565695608   0.624973451686723   1.0000000
B2   B   0.722305150515595   0.777821904643640   0.624974962869474   1.0000000
B2   B   0.555698494493297   0.277818972261946   0.624586918252545   1.0000000
B2   B   0.888874747815292   0.277771035298531   0.624907050868143   1.0000000
B2   B   0.222180328258173   0.777778982921529   0.125046740104266   1.0000000
B2   B   0.055468740407108   0.277742745390410   0.125024242985368   1.0000000
B2   B   0.388901447158105   0.277646149228790   0.125371775198241   1.0000000
B2   B   0.555555538604117   0.777845619634736   0.125024909051796   1.0000000
B2   B   0.888967471759126   0.777777647294109   0.125103812749998   1.0000000
B2   B   0.722266660633744   0.277794957863884   0.125071627908090   1.0000000
B2   B   0.055537982832739   0.944365731404766   0.624968352834441   1.0000000
B2   B   0.388868747016709   0.944433444182841   0.624934820769649   1.0000000
B2   B   0.222111616047144   0.444472425542931   0.624926356056362   1.0000000
B2   B   0.555742656330220   0.444342107255271   0.624627586925306   1.0000000
B2   B   0.722234129216119   0.944456674759902   0.624903194255122   1.0000000
B2   B   0.888874864649547   0.444434849506054   0.624884350686330   1.0000000
B2   B   0.055490330203967   0.444463641975926   0.125037571329256   1.0000000
B2   B   0.222192286931872   0.944366744166304   0.125097585613199   1.0000000
B2   B   0.555546965572430   0.944470642714258   0.125037824886151   1.0000000
B2   B   0.388857318439271   0.444440265306011   0.125262901224309   1.0000000
B2   B   0.888903730830303   0.944414287870374   0.125050635502669   1.0000000
B2   B   0.722265908387262   0.444396916132811   0.125474756499029   1.0000000
B2   B   0.222141416333972   0.611158067987860   0.624948638281956   1.0000000
B2   B   0.055483109447188   0.111014413235621   0.624943988425016   1.0000000
B2   B   0.555634937962070   0.611185856435590   0.624845205722645   1.0000000
B2   B   0.388901338465855   0.111042537856070   0.624922538530429   1.0000000
B2   B   0.888936952967202   0.611102534769309   0.624883297028860   1.0000000
B2   B   0.055523382073922   0.611117370837733   0.125125832447951   1.0000000
B2   B   0.722231524692816   0.111107853437878   0.624941215079703   1.0000000
B2   B   0.222146232662730   0.110952729615679   0.125066986154761   1.0000000
B2   B   0.388827343921845   0.611198509003235   0.125020073968504   1.0000000
B2   B   0.722390174178966   0.611126126428200   0.125228466293634   1.0000000
B2   B   0.555595728558531   0.111126166470397   0.125139477322531   1.0000000
B2   B   0.388827343921845   0.611198509003235   0.624979926031496   1.0000000
B2   B   0.888865583017618   0.111080747745809   0.125020006306655   1.0000000
B2   B   0.222180328258173   0.777778982921529   0.624953259895734   1.0000000
B2   B   0.055468740407108   0.277742745390410   0.624975757014632   1.0000000
B2   B   0.388901447158105   0.277646149228790   0.624628224801759   1.0000000
B2   B   0.555555538604117   0.777845619634736   0.624975090948204   1.0000000
B2   B   0.888967471759126   0.777777647294109   0.624896187250002   1.0000000
B2   B   0.722266660633744   0.277794957863884   0.624928372091911   1.0000000
B2   B   0.055560862784177   0.777748999995895   0.125079046869523   1.0000000
B2   B   0.388840583032699   0.777830055842006   0.125090515684756   1.0000000
B2   B   0.222099748905784   0.277675565695608   0.125026548313277   1.0000000
B2   B   0.722305150515595   0.777821904643640   0.125025037130527   1.0000000
B2   B   0.555698494493297   0.277818972261946   0.125413081747455   1.0000000
B2   B   0.888874747815292   0.277771035298531   0.125092949131857   1.0000000
B2   B   0.055490330203967   0.444463641975926   0.624962428670744   1.0000000
B2   B   0.222192286931872   0.944366744166304   0.624902414386802   1.0000000
B2   B   0.555546965572430   0.944470642714258   0.624962175113849   1.0000000
B2   B   0.388857318439271   0.444440265306011   0.624737098775691   1.0000000
B2   B   0.888903730830303   0.944414287870374   0.624949364497331   1.0000000
B2   B   0.055537982832739   0.944365731404766   0.125031647165560   1.0000000
B2   B   0.722265908387262   0.444396916132811   0.624525243500971   1.0000000
B2   B   0.388868747016709   0.944433444182841   0.125065179230351   1.0000000
B2   B   0.222111616047144   0.444472425542931   0.125073643943637   1.0000000
B2   B   0.222141416333972   0.611158067987860   0.125051361718044   1.0000000
B2   B   0.555742656330220   0.444342107255271   0.125372413074693   1.0000000
B2   B   0.722234129216119   0.944456674759902   0.125096805744878   1.0000000
B2   B   0.888874864649547   0.444434849506054   0.125115649313671   1.0000000
B2   B   0.055523382073922   0.611117370837733   0.624874167552048   1.0000000
B2   B   0.222146232662730   0.110952729615679   0.624933013845239   1.0000000
B2   B   0.722390174178966   0.611126126428200   0.624771533706366   1.0000000
B2   B   0.555595728558531   0.111126166470397   0.624860522677469   1.0000000
B2   B   0.888865583017618   0.111080747745809   0.624979993693344   1.0000000


