data_1
_audit_creation_method   'vasp2cif'
_cell_length_a    17.52789999999977
_cell_length_b    17.52789999999977
_cell_length_c    15.0
_cell_angle_alpha    90.0
_cell_angle_beta    90.0
_cell_angle_gamma    119.99999999999916

_symmetry_space_group_name_H-M    'P 1'
loop_
_atom_site_label
_atom_site_type_symbol
_atom_site_fract_x
_atom_site_fract_y
_atom_site_fract_z
_atom_site_occupancy
Sn2   Sn   0.497444038371932   0.502557363545066   0.110728319560589   1.0000000
B2   B   0.906295916229242   0.953670884438359   0.111006101715092   1.0000000
B2   B   0.904436730980671   0.095565290215323   0.111013885197805   1.0000000
B2   B   0.903947927603308   0.238227358085796   0.111011451516951   1.0000000
B2   B   0.904329281301298   0.381075795935232   0.110971102014582   1.0000000
B2   B   0.905990892410393   0.524127405119483   0.111051876221497   1.0000000
B2   B   0.907601938912249   0.667632585674551   0.111081275983799   1.0000000
B2   B   0.908328490526162   0.811700221121707   0.111049047874068   1.0000000
B2   B   0.048272592659374   0.951729428536602   0.111020471787488   1.0000000
B2   B   0.046331136757739   0.093706104966751   0.111006101715092   1.0000000
B2   B   0.045823713383094   0.236993378198181   0.110976172027576   1.0000000
B2   B   0.046454883934539   0.380396229005417   0.111012671397283   1.0000000
B2   B   0.048009868869834   0.523463940809282   0.111030666858513   1.0000000
B2   B   0.049241399161318   0.666384615349172   0.111052067646441   1.0000000
B2   B   0.049286886086880   0.809282741786892   0.111037441912161   1.0000000
B2   B   0.190719279408941   0.950715135109106   0.111037441912161   1.0000000
B2   B   0.188301800074240   0.091673530669901   0.111049047874068   1.0000000
B2   B   0.186044318496255   0.233492475995169   0.110995590358283   1.0000000
B2   B   0.187530788092940   0.378742448030982   0.111055588751072   1.0000000
B2   B   0.190060642581201   0.522689031324241   0.111088431669481   1.0000000
B2   B   0.191773785991795   0.665742416274369   0.111050896473164   1.0000000
B2   B   0.191551972818332   0.808450048377633   0.110994001273787   1.0000000
B2   B   0.333617405847855   0.950760622034758   0.111052067646441   1.0000000
B2   B   0.332369435522404   0.092400082283619   0.111081275983798   1.0000000
B2   B   0.327615166603329   0.230714229900584   0.110996428455603   1.0000000
B2   B   0.324413121231503   0.373167504447913   0.111058203277929   1.0000000
B2   B   0.331796265048424   0.520666401798937   0.111109982477429   1.0000000
B2   B   0.334949103287883   0.665052917909225   0.111109564009251   1.0000000
B2   B   0.334259604922672   0.808228235204169   0.111050896473164   1.0000000
B2   B   0.476538080387755   0.951992152326260   0.111030666858513   1.0000000
B2   B   0.475874616077557   0.094011128785639   0.111051876221497   1.0000000
B2   B   0.474627376019679   0.235140878810346   0.111016469883472   1.0000000
B2   B   0.465078203689945   0.366445218466870   0.111072790458226   1.0000000
B2   B   0.479335619398100   0.668205756148609   0.111109982477429   1.0000000
B2   B   0.477312989872703   0.809941378614807   0.111088431669481   1.0000000
B2   B   0.619605792190581   0.953547137261455   0.111012671397283   1.0000000
B2   B   0.618926225260635   0.095672739894707   0.110971102014582   1.0000000
B2   B   0.618560977850271   0.238300275047599   0.110984614705074   1.0000000
B2   B   0.618348587995938   0.381653433200123   0.110984514974897   1.0000000
B2   B   0.633556802729203   0.534923817507145   0.111072790458226   1.0000000
B2   B   0.626834516748129   0.675588899965362   0.111058203277929   1.0000000
B2   B   0.621259573165026   0.812471233103032   0.111055588751072   1.0000000
B2   B   0.763008642997800   0.954178307812974   0.110976172027576   1.0000000
B2   B   0.761774663110255   0.096054093592817   0.111011451516950   1.0000000
B2   B   0.761437219220289   0.238564801975693   0.111000510173585   1.0000000
B2   B   0.761701746148313   0.381441043345752   0.110984614705074   1.0000000
B2   B   0.764861142385690   0.525374645177238   0.111016469883472   1.0000000
B2   B   0.769287791295474   0.672386854593576   0.110996428455603   1.0000000
B2   B   0.766509545200762   0.813957702699817   0.110995590358283   1.0000000
N2   N   0.954048220323143   0.905944030721884   0.111010242864664   1.0000000
N2   N   0.952100337312424   0.047901064605550   0.111002355948827   1.0000000
N2   N   0.951161865722054   0.190333960345872   0.110987365511311   1.0000000
N2   N   0.951410371432742   0.333224466264286   0.110966426382041   1.0000000
N2   N   0.952761265486286   0.476151731201327   0.110988156134559   1.0000000
N2   N   0.954135257496610   0.619219731992759   0.111062120749921   1.0000000
N2   N   0.954599938360289   0.762633771049667   0.111052724247788   1.0000000
N2   N   0.095951157128702   0.904050244789343   0.111005106020529   1.0000000
N2   N   0.094057371196185   0.045953181594908   0.111010242864666   1.0000000
N2   N   0.092117160263181   0.187967507858125   0.110953026400534   1.0000000
N2   N   0.092865858282404   0.331942815522336   0.110992395719117   1.0000000
N2   N   0.094815562208034   0.475497338289871   0.111026772239060   1.0000000
N2   N   0.096404425747768   0.618543993391947   0.111035704945797   1.0000000
N2   N   0.096553260003241   0.761379103431362   0.110998879737666   1.0000000
N2   N   0.238622298486611   0.903448141914703   0.110998879737666   1.0000000
N2   N   0.237367630868323   0.045401463557777   0.111052724247788   1.0000000
N2   N   0.233706257143123   0.185573947637701   0.111002526556204   1.0000000
N2   N   0.231212701983658   0.327401362808450   0.111025601255341   1.0000000
N2   N   0.236123305157492   0.474164321161644   0.111082621209177   1.0000000
N2   N   0.239190788318884   0.617997720089831   0.111073917683252   1.0000000
N2   N   0.239117057642030   0.760884344276066   0.111000202922800   1.0000000
N2   N   0.381457408526158   0.903596976170209   0.111035704945797   1.0000000
N2   N   0.380781669925102   0.045866144421486   0.111062120749921   1.0000000
N2   N   0.379159213727329   0.187139306992282   0.111027445922356   1.0000000
N2   N   0.372165532994651   0.324172293718540   0.110985930630528   1.0000000
N2   N   0.369950908898346   0.465799568631719   0.111072610660901   1.0000000
N2   N   0.382756284210573   0.617245117707481   0.111101297718256   1.0000000
N2   N   0.382003681828092   0.760810613599056   0.111073917683252   1.0000000
N2   N   0.524504063627137   0.905185839709906   0.111026772239060   1.0000000
N2   N   0.523849670715690   0.047240136431669   0.110988156134559   1.0000000
N2   N   0.523268067741336   0.189279363388445   0.111013690039863   1.0000000
N2   N   0.522084603588757   0.330873437748815   0.110981797446704   1.0000000
N2   N   0.534201833285273   0.630050493019705   0.111072610660901   1.0000000
N2   N   0.525837080755378   0.763878096760580   0.111082621209177   1.0000000
N2   N   0.668058586394631   0.907135543635550   0.110992395719117   1.0000000
N2   N   0.666776935652785   0.048591030485366   0.110966426382041   1.0000000
N2   N   0.666276541261855   0.191006076766761   0.110957957213681   1.0000000
N2   N   0.665983236143314   0.334018165773685   0.110950767509085   1.0000000
N2   N   0.669127964168232   0.477916798328238   0.110981797446704   1.0000000
N2   N   0.675829108198517   0.627835868923270   0.110985930630528   1.0000000
N2   N   0.672600039108498   0.768788699934352   0.111025601255341   1.0000000
N2   N   0.812033894059895   0.907884241654730   0.110953026400533   1.0000000
N2   N   0.809667441572053   0.048839536195949   0.110987365511311   1.0000000
N2   N   0.808951385217650   0.191050016700317   0.111011278768858   1.0000000
N2   N   0.808995325151334   0.333724860655201   0.110957957213681   1.0000000
N2   N   0.810722038529594   0.476733334175778   0.111013690039863   1.0000000
N2   N   0.812862094925596   0.620842188190602   0.111027445922356   1.0000000
N2   N   0.814427454280303   0.766295144774839   0.111002526556204   1.0000000


