data_1
_audit_creation_method   'vasp2cif'
_cell_length_a    17.52789999999977
_cell_length_b    17.52789999999977
_cell_length_c    15.0
_cell_angle_alpha    90.0
_cell_angle_beta    90.0
_cell_angle_gamma    119.99999999999916

_symmetry_space_group_name_H-M    'P 1'
loop_
_atom_site_label
_atom_site_type_symbol
_atom_site_fract_x
_atom_site_fract_y
_atom_site_fract_z
_atom_site_occupancy
B2   B   0.905153809488061   0.952758237196252   0.115623575531627   1.0000000
B2   B   0.904671907086985   0.095493095990961   0.117699611092081   1.0000000
B2   B   0.904494239374417   0.238399453724017   0.118824911545490   1.0000000
B2   B   0.904279091371735   0.381143750660133   0.117728673357717   1.0000000
B2   B   0.903786889729539   0.523669918544867   0.115394601291064   1.0000000
B2   B   0.904427850828838   0.666358172550935   0.114922257386042   1.0000000
B2   B   0.905193497667334   0.809778232240274   0.114875396623700   1.0000000
B2   B   0.047887897207446   0.952267778994356   0.116786184544379   1.0000000
B2   B   0.047413329512495   0.095013691082974   0.115724800545933   1.0000000
B2   B   0.047339929803170   0.238019279903653   0.114730931251372   1.0000000
B2   B   0.047585844397563   0.380864406755573   0.114399439945079   1.0000000
B2   B   0.047946193794810   0.523444371135207   0.115663539958624   1.0000000
B2   B   0.047945217380899   0.666158841173236   0.117286256063727   1.0000000
B2   B   0.047935720192021   0.809196486265583   0.117866852540694   1.0000000
B2   B   0.190938018044168   0.952195750782985   0.117725149814122   1.0000000
B2   B   0.190379416240619   0.094955184503346   0.114927484101793   1.0000000
B2   B   0.189605929459684   0.237222947256242   0.111836968544703   1.0000000
B2   B   0.190338960247902   0.380337595398877   0.107063396491526   1.0000000
B2   B   0.191957786635419   0.522926482850034   0.107216278864404   1.0000000
B2   B   0.191597894818267   0.665795240509335   0.112664185121288   1.0000000
B2   B   0.191174434061499   0.808952019467087   0.117493323656368   1.0000000
B2   B   0.333964908378661   0.952182992299087   0.117073757370147   1.0000000
B2   B   0.333771342077894   0.095692945270858   0.114760202723054   1.0000000
B2   B   0.332818633624267   0.238073052267936   0.111496598560948   1.0000000
B2   B   0.331395322195877   0.378873576714515   0.102142252881273   1.0000000
B2   B   0.336490612064735   0.521485108127480   0.093472372914935   1.0000000
B2   B   0.335179000248002   0.664977547497662   0.101454096628651   1.0000000
B2   B   0.334341255179598   0.808547336249151   0.112596716300205   1.0000000
B2   B   0.476693593984783   0.952200662060388   0.115668382015228   1.0000000
B2   B   0.476459604424277   0.096340925078272   0.115343631236697   1.0000000
B2   B   0.476223050888275   0.240866673361427   0.107747029898176   1.0000000
B2   B   0.474443440714622   0.385263463828824   0.102125253181518   1.0000000
B2   B   0.478681997489615   0.663698020493753   0.093293650068557   1.0000000
B2   B   0.477223339681727   0.808207247311994   0.107187679841413   1.0000000
B2   B   0.619292699229945   0.952585434375719   0.114530620418659   1.0000000
B2   B   0.618994476667317   0.095875612533932   0.117905615377639   1.0000000
B2   B   0.618715920710918   0.239329189002393   0.112477426790921   1.0000000
B2   B   0.617774991820438   0.382359479619393   0.102056925356477   1.0000000
B2   B   0.614832729267483   0.525695865705054   0.102062206287267   1.0000000
B2   B   0.621294901329457   0.668795851494193   0.101731421288014   1.0000000
B2   B   0.619834109522465   0.809853983666210   0.106823298911726   1.0000000
B2   B   0.762145744971436   0.952838698114954   0.114675661945137   1.0000000
B2   B   0.761757970172045   0.095673055922326   0.118955958073750   1.0000000
B2   B   0.761465580137748   0.238689594344901   0.118267180127438   1.0000000
B2   B   0.760810488823812   0.381424432734686   0.112434071509554   1.0000000
B2   B   0.759243525463177   0.523906796067203   0.107771488521995   1.0000000
B2   B   0.762062370426058   0.667336605885070   0.111308227523680   1.0000000
B2   B   0.762945529729561   0.810574097564066   0.111475935627892   1.0000000
N2   N   0.952866859806476   0.905092195776349   0.115884366813028   1.0000000
N2   N   0.952330679635622   0.047834808241578   0.116763910865622   1.0000000
N2   N   0.952043710662099   0.190646324825928   0.117841259235255   1.0000000
N2   N   0.952137767819679   0.333575009922078   0.118055130006056   1.0000000
N2   N   0.952228685980133   0.476327501174055   0.117234377728955   1.0000000
N2   N   0.952557325821647   0.618952635096820   0.116365054386891   1.0000000
N2   N   0.952827193643134   0.761923023138907   0.116295557432248   1.0000000
N2   N   0.095610282743203   0.904525129331599   0.118007350505616   1.0000000
N2   N   0.095065331425844   0.047288117605135   0.115934298441950   1.0000000
N2   N   0.094345607767611   0.189844675029704   0.114123992112969   1.0000000
N2   N   0.094772392688082   0.333065707682167   0.112049635464723   1.0000000
N2   N   0.095960583335414   0.476017632550642   0.112902154675315   1.0000000
N2   N   0.095982574024912   0.618700045720963   0.115985790218469   1.0000000
N2   N   0.095799450025420   0.761535560307006   0.118373503624843   1.0000000
N2   N   0.238588847610555   0.904325252585552   0.118174686042194   1.0000000
N2   N   0.238213843743520   0.047303170229326   0.116127220850003   1.0000000
N2   N   0.237131433228713   0.189557443521849   0.112687951525511   1.0000000
N2   N   0.236152197767039   0.331606702343898   0.107804031416276   1.0000000
N2   N   0.239552779747947   0.475332088278267   0.102578590303955   1.0000000
N2   N   0.239375299063807   0.618296503626199   0.106741852572152   1.0000000
N2   N   0.238909571757720   0.761223199704225   0.114602023404740   1.0000000
N2   N   0.381435186770162   0.904159722924501   0.115841649506153   1.0000000
N2   N   0.381178144013282   0.047569309924573   0.116147957789460   1.0000000
N2   N   0.380780801391305   0.190551831700305   0.111520300252522   1.0000000
N2   N   0.378749796636425   0.331926903151828   0.109496515208688   1.0000000
N2   N   0.381082877781592   0.471382576243001   0.088248288648792   1.0000000
N2   N   0.382674297057474   0.617486678371095   0.092169311708890   1.0000000
N2   N   0.381852748972581   0.760780496972833   0.106713406742922   1.0000000
N2   N   0.524134375030413   0.904201658832240   0.112985553274806   1.0000000
N2   N   0.523811658217134   0.047917229224348   0.117308103439955   1.0000000
N2   N   0.523538560818041   0.191846268946706   0.111703286737330   1.0000000
N2   N   0.522987949920133   0.336404456340090   0.100957370290127   1.0000000
N2   N   0.528772482143590   0.619111614365198   0.087932571652514   1.0000000
N2   N   0.524831335769934   0.760635382350146   0.102410653217514   1.0000000
N2   N   0.667095935637002   0.905410218284381   0.112024410518911   1.0000000
N2   N   0.666574630687455   0.048030084640322   0.118301813803094   1.0000000
N2   N   0.666298973587374   0.191153170963596   0.117202744062751   1.0000000
N2   N   0.665911399078479   0.334226033732676   0.108438359863768   1.0000000
N2   N   0.663706784376985   0.477146286174936   0.100952084273601   1.0000000
N2   N   0.668214910958867   0.621419992501894   0.109197967431202   1.0000000
N2   N   0.668567892921874   0.764043998554840   0.107336508233581   1.0000000
N2   N   0.810322712931400   0.905833608692564   0.113895043454013   1.0000000
N2   N   0.809514742201078   0.048128255332475   0.117912248606830   1.0000000
N2   N   0.809229023842624   0.190934485900870   0.119963460394331   1.0000000
N2   N   0.809000032498966   0.333847054923802   0.117079374352986   1.0000000
N2   N   0.808281090235081   0.476601279412458   0.111712160465322   1.0000000
N2   N   0.809573564033638   0.619358494692719   0.111559046047592   1.0000000
N2   N   0.810596228744322   0.763031557501135   0.112412098380740   1.0000000
P2   P   0.493770521307333   0.506291358768239   0.045999012756117   1.0000000


