data_1
_audit_creation_method   'vasp2cif'
_cell_length_a    14.93631414619966
_cell_length_b    14.936314146199727
_cell_length_c    13.341276283792837
_cell_angle_alpha    90.0
_cell_angle_beta    90.0
_cell_angle_gamma    119.99999999999984

_symmetry_space_group_name_H-M    'P 1'
loop_
_atom_site_label
_atom_site_type_symbol
_atom_site_fract_x
_atom_site_fract_y
_atom_site_fract_z
_atom_site_occupancy
Al2   Al   0.483251708772004   0.408292521052666   0.375000000000000   1.0000000
N2   N   0.111128614955092   0.055570236178754   0.124852616857668   1.0000000
N2   N   0.611260192038456   0.555755241718326   0.123310676927779   1.0000000
N2   N   0.444494391171811   0.055570138236976   0.124862167895137   1.0000000
N2   N   0.944463411803519   0.555553882695125   0.124936481997398   1.0000000
N2   N   0.777830940955460   0.055582137144398   0.124863808543464   1.0000000
N2   N   0.111129373736695   0.722231353535011   0.625109454512985   1.0000000
N2   N   0.444494391171811   0.722257586268170   0.625137832104863   1.0000000
N2   N   0.277777240054294   0.222216166778797   0.625273574546824   1.0000000
N2   N   0.777838495592240   0.722302034298932   0.625276399220172   1.0000000
N2   N   0.611180941016027   0.222201377706628   0.625393373492910   1.0000000
N2   N   0.944479823572194   0.222229383602581   0.625107875481743   1.0000000
N2   N   0.277810308807294   0.722235416222595   0.124905534873280   1.0000000
N2   N   0.111125291526851   0.222229312430090   0.124848163561561   1.0000000
N2   N   0.444512738640178   0.222236364595024   0.124711392070042   1.0000000
N2   N   0.611180941016027   0.722312896642728   0.124606626507090   1.0000000
N2   N   0.944463411803519   0.722242862441728   0.124936481997398   1.0000000
N2   N   0.777834100314388   0.222213916711573   0.124893118960955   1.0000000
N2   N   0.111133597805601   0.888910181845825   0.625107345500399   1.0000000
N2   N   0.444487854452831   0.888910593893080   0.625111574162427   1.0000000
N2   N   0.277777240054294   0.388894406608825   0.625273574546824   1.0000000
N2   N   0.611260192038456   0.388838283653460   0.626689323072222   1.0000000
N2   N   0.777834100314388   0.888953516936145   0.625106881039045   1.0000000
N2   N   0.944479301552116   0.388883902175862   0.625059970945375   1.0000000
N2   N   0.111128614955092   0.388891712109666   0.124852616857668   1.0000000
N2   N   0.277810308807294   0.888908225918028   0.124905534873280   1.0000000
N2   N   0.611164332951118   0.888934138335740   0.124898150925383   1.0000000
N2   N   0.444421126076880   0.388877229705104   0.125872328171917   1.0000000
N2   N   0.944479301552116   0.888928732709583   0.124940029054625   1.0000000
N2   N   0.777838495592240   0.388869794626636   0.124723600779827   1.0000000
N2   N   0.277816609315458   0.555570591107537   0.625116458488275   1.0000000
N2   N   0.111128614955092   0.055570236178754   0.625147383142332   1.0000000
N2   N   0.611260192038456   0.555755241718326   0.626689323072222   1.0000000
N2   N   0.444494391171811   0.055570138236976   0.625137832104863   1.0000000
N2   N   0.944463411803519   0.555553882695125   0.625063518002602   1.0000000
N2   N   0.111133597805601   0.555556749293106   0.124892654499602   1.0000000
N2   N   0.777830940955460   0.055582137144398   0.625136191456536   1.0000000
N2   N   0.277816609315458   0.055579351541256   0.124883541511724   1.0000000
N2   N   0.444512738640178   0.555609707378489   0.124711392070042   1.0000000
N2   N   0.777814112227570   0.555573722780453   0.124628635301938   1.0000000
N2   N   0.611164332951118   0.055563527948707   0.124898150925383   1.0000000
N2   N   0.444512738640178   0.555609707378489   0.625288607929959   1.0000000
N2   N   0.944479823572194   0.055583773302948   0.124892124518257   1.0000000
N2   N   0.277810308807294   0.722235416222595   0.625094465126721   1.0000000
N2   N   0.111125291526851   0.222229312430090   0.625151836438438   1.0000000
N2   N   0.444512738640178   0.222236364595024   0.625288607929959   1.0000000
N2   N   0.611180941016027   0.722312896642728   0.625393373492910   1.0000000
N2   N   0.944463411803519   0.722242862441728   0.625063518002602   1.0000000
N2   N   0.777834100314388   0.222213916711573   0.625106881039045   1.0000000
N2   N   0.111129373736695   0.722231353535011   0.124890545487015   1.0000000
N2   N   0.444494391171811   0.722257586268170   0.124862167895137   1.0000000
N2   N   0.277777240054294   0.222216166778797   0.124726425453176   1.0000000
N2   N   0.777838495592240   0.722302034298932   0.124723600779827   1.0000000
N2   N   0.611180941016027   0.222201377706628   0.124606626507090   1.0000000
N2   N   0.944479823572194   0.222229383602581   0.124892124518257   1.0000000
N2   N   0.111128614955092   0.388891712109666   0.625147383142332   1.0000000
N2   N   0.277810308807294   0.888908225918028   0.625094465126721   1.0000000
N2   N   0.611164332951118   0.888934138335740   0.625101849074617   1.0000000
N2   N   0.444421126076880   0.388877229705104   0.624127671828083   1.0000000
N2   N   0.944479301552116   0.888928732709583   0.625059970945375   1.0000000
N2   N   0.111133597805601   0.888910181845825   0.124892654499602   1.0000000
N2   N   0.777838495592240   0.388869794626636   0.625276399220172   1.0000000
N2   N   0.444487854452831   0.888910593893080   0.124888425837573   1.0000000
N2   N   0.277777240054294   0.388894406608825   0.124726425453176   1.0000000
N2   N   0.277816609315458   0.555570591107537   0.124883541511724   1.0000000
N2   N   0.611260192038456   0.388838283653460   0.123310676927779   1.0000000
N2   N   0.777834100314388   0.888953516936145   0.124893118960955   1.0000000
N2   N   0.944479301552116   0.388883902175862   0.124940029054625   1.0000000
N2   N   0.111133597805601   0.555556749293106   0.625107345500399   1.0000000
N2   N   0.277816609315458   0.055579351541256   0.625116458488275   1.0000000
N2   N   0.777814112227570   0.555573722780453   0.625371364698062   1.0000000
N2   N   0.611164332951118   0.055563527948707   0.625101849074617   1.0000000
N2   N   0.944479823572194   0.055583773302948   0.625107875481743   1.0000000
N2   N   0.056757787378932   0.111822977204546   0.375000000000000   1.0000000
N2   N   0.554869717263530   0.616853466503453   0.375000000000000   1.0000000
N2   N   0.387162722095391   0.105591431534651   0.375000000000000   1.0000000
N2   N   0.886174591800320   0.609753962566832   0.375000000000000   1.0000000
N2   N   0.722730070652123   0.110774044452276   0.375000000000000   1.0000000
N2   N   0.055569716640725   0.777784333598118   0.875000000000000   1.0000000
N2   N   0.388892063089430   0.777783387313550   0.875000000000000   1.0000000
N2   N   0.222230602484761   0.277781967909049   0.875000000000000   1.0000000
N2   N   0.722228640518901   0.777777390610981   0.875000000000000   1.0000000
N2   N   0.555552974108792   0.277770170621967   0.875000000000000   1.0000000
N2   N   0.888897794313588   0.277786519088460   0.875000000000000   1.0000000
N2   N   0.220029342705090   0.776681338019213   0.375000000000000   1.0000000
N2   N   0.056757787378932   0.278268143507721   0.375000000000000   1.0000000
N2   N   0.389372749623941   0.270884367552898   0.375000000000000   1.0000000
N2   N   0.555028205828866   0.780336634779717   0.375000000000000   1.0000000
N2   N   0.887543518747566   0.777297864467886   0.375000000000000   1.0000000
N2   N   0.722375285936119   0.276371037687088   0.375000000000000   1.0000000
N2   N   0.055563627355196   0.944444839211370   0.875000000000000   1.0000000
N2   N   0.388892063089430   0.944442009109214   0.875000000000000   1.0000000
N2   N   0.222227273218340   0.444451095758275   0.875000000000000   1.0000000
N2   N   0.555553829203987   0.444443581268658   0.875000000000000   1.0000000
N2   N   0.722225676307236   0.944444683606613   0.875000000000000   1.0000000
N2   N   0.888904189116097   0.444454575210910   0.875000000000000   1.0000000
N2   N   0.054721503744405   0.444332700088836   0.375000000000000   1.0000000
N2   N   0.220209756240985   0.942242903130535   0.375000000000000   1.0000000
N2   N   0.555096347307361   0.944214840320346   0.375000000000000   1.0000000
N2   N   0.389372749623941   0.451821715404379   0.375000000000000   1.0000000
N2   N   0.889453110286982   0.945182339331721   0.375000000000000   1.0000000
N2   N   0.719787930802912   0.442479122042469   0.375000000000000   1.0000000
N2   N   0.222226805074732   0.611117616533081   0.875000000000000   1.0000000
N2   N   0.055561582100686   0.111111682350830   0.875000000000000   1.0000000
N2   N   0.555552974108792   0.611116136820162   0.875000000000000   1.0000000
N2   N   0.388890261950557   0.111103628748955   0.875000000000000   1.0000000
N2   N   0.888913108715426   0.611123221024384   0.875000000000000   1.0000000
N2   N   0.053327568478926   0.610258668222078   0.375000000000000   1.0000000
N2   N   0.722225676307236   0.111114326033959   0.875000000000000   1.0000000
N2   N   0.221767211175990   0.109606246545059   0.375000000000000   1.0000000
N2   N   0.387162722095391   0.614904623894084   0.375000000000000   1.0000000
N2   N   0.719787930802912   0.610642142093780   0.375000000000000   1.0000000
N2   N   0.555028205828866   0.108024904382485   0.375000000000000   1.0000000
N2   N   0.388890261950557   0.611119966534945   0.875000000000000   1.0000000
N2   N   0.889905182303342   0.111619257818343   0.375000000000000   1.0000000
N2   N   0.222229670662072   0.777781501997704   0.875000000000000   1.0000000
N2   N   0.055561582100686   0.277783233083191   0.875000000000000   1.0000000
N2   N   0.388898605143214   0.277779167694413   0.875000000000000   1.0000000
N2   N   0.555556181668379   0.777781261976350   0.875000000000000   1.0000000
N2   N   0.888904189116097   0.777782947238524   0.875000000000000   1.0000000
N2   N   0.722228640518901   0.277784583241255   0.875000000000000   1.0000000
N2   N   0.053327568478926   0.776402233590185   0.375000000000000   1.0000000
N2   N   0.387279077098656   0.778422928636533   0.375000000000000   1.0000000
N2   N   0.224858357265881   0.279095845299609   0.375000000000000   1.0000000
N2   N   0.722375285936119   0.779337581582366   0.375000000000000   1.0000000
N2   N   0.554869717263530   0.271349584093412   0.375000000000000   1.0000000
N2   N   0.889453110286982   0.277604104288595   0.375000000000000   1.0000000
N2   N   0.055563627355196   0.444452121477154   0.875000000000000   1.0000000
N2   N   0.222226805074732   0.944442521874987   0.875000000000000   1.0000000
N2   N   0.555556177470711   0.944444755402020   0.875000000000000   1.0000000
N2   N   0.388898605143214   0.444452770782137   0.875000000000000   1.0000000
N2   N   0.888897794313588   0.944444608558464   0.875000000000000   1.0000000
N2   N   0.054721503744405   0.943722136988897   0.375000000000000   1.0000000
N2   N   0.722240700251194   0.444457009160405   0.875000000000000   1.0000000
N2   N   0.387279077098656   0.942189481795459   0.375000000000000   1.0000000
N2   N   0.221767211175990   0.445494297964266   0.375000000000000   1.0000000
N2   N   0.220209756240985   0.611300186443786   0.375000000000000   1.0000000
N2   N   0.722730070652123   0.945289359533182   0.375000000000000   1.0000000
N2   N   0.887543518747566   0.443578987613015   0.375000000000000   1.0000000
N2   N   0.055569716640725   0.611118716375943   0.875000000000000   1.0000000
N2   N   0.222227273218340   0.111109510793400   0.875000000000000   1.0000000
N2   N   0.722240700251194   0.611117024424126   0.875000000000000   1.0000000
N2   N   0.555556181668379   0.111108253025364   0.875000000000000   1.0000000
N2   N   0.888895727040352   0.111114530186848   0.875000000000000   1.0000000
B2   B   0.111367041422947   0.055211873280500   0.375000000000000   1.0000000
B2   B   0.608085564969658   0.558457165591045   0.375000000000000   1.0000000
B2   B   0.443681674197059   0.052475670407036   0.375000000000000   1.0000000
B2   B   0.942050295475468   0.554601006106270   0.375000000000000   1.0000000
B2   B   0.778719477917947   0.056026405625641   0.375000000000000   1.0000000
B2   B   0.111114091899114   0.722223712616222   0.875000000000000   1.0000000
B2   B   0.444448753590580   0.722198700727289   0.875000000000000   1.0000000
B2   B   0.277835700669206   0.222261594118646   0.875000000000000   1.0000000
B2   B   0.777750073383280   0.722169323745432   0.875000000000000   1.0000000
B2   B   0.611092005770988   0.222259210013339   0.875000000000000   1.0000000
B2   B   0.944461392574026   0.222238848984333   0.875000000000000   1.0000000
B2   B   0.276117847293488   0.722030342167271   0.375000000000000   1.0000000
B2   B   0.113991395541344   0.223662364437337   0.375000000000000   1.0000000
B2   B   0.442887112002876   0.216005480747097   0.375000000000000   1.0000000
B2   B   0.611050057026642   0.725625517505724   0.375000000000000   1.0000000
B2   B   0.942050295475468   0.720782622702533   0.375000000000000   1.0000000
B2   B   0.778325119300086   0.221854508442195   0.375000000000000   1.0000000
B2   B   0.111123416128720   0.888895382200477   0.875000000000000   1.0000000
B2   B   0.444444247057008   0.888888790195168   0.875000000000000   1.0000000
B2   B   0.277835700669206   0.388907439883889   0.875000000000000   1.0000000
B2   B   0.611088660121803   0.388911679366236   0.875000000000000   1.0000000
B2   B   0.777766319832683   0.888853297644161   0.875000000000000   1.0000000
B2   B   0.944447228426758   0.388907537864343   0.875000000000000   1.0000000
B2   B   0.111367041422947   0.389488501475776   0.375000000000000   1.0000000
B2   B   0.276117847293488   0.887420838459545   0.375000000000000   1.0000000
B2   B   0.611378673372240   0.890142091838969   0.375000000000000   1.0000000
B2   B   0.943768985063094   0.888459282507238   0.375000000000000   1.0000000
B2   B   0.776090233925116   0.387781600288037   0.375000000000000   1.0000000
B2   B   0.277806307978932   0.555551884683149   0.875000000000000   1.0000000
B2   B   0.111145680441458   0.055574488346181   0.875000000000000   1.0000000
B2   B   0.611088660121803   0.555510314088894   0.875000000000000   1.0000000
B2   B   0.444448753590580   0.055583386196627   0.875000000000000   1.0000000
B2   B   0.944433427678716   0.555560088050418   0.875000000000000   1.0000000
B2   B   0.109381351503156   0.555275893192507   0.375000000000000   1.0000000
B2   B   0.777774110284794   0.055553721809065   0.875000000000000   1.0000000
B2   B   0.276495147300520   0.053297152567861   0.375000000000000   1.0000000
B2   B   0.442887112002876   0.560214964589115   0.375000000000000   1.0000000
B2   B   0.774075413929870   0.553704373631603   0.375000000000000   1.0000000
B2   B   0.611378673372240   0.054569914866600   0.375000000000000   1.0000000
B2   B   0.444467810618066   0.555536273289972   0.875000000000000   1.0000000
B2   B   0.945777981679775   0.056395747073613   0.375000000000000   1.0000000
B2   B   0.277789064399160   0.722219618787572   0.875000000000000   1.0000000
B2   B   0.111160595499955   0.222246964416642   0.875000000000000   1.0000000
B2   B   0.444467810618066   0.222264870661429   0.875000000000000   1.0000000
B2   B   0.611092005770988   0.722166129090978   0.875000000000000   1.0000000
B2   B   0.944433427678716   0.722206672961635   0.875000000000000   1.0000000
B2   B   0.777766319832683   0.222246355521851   0.875000000000000   1.0000000
B2   B   0.108930429829984   0.721131881581657   0.375000000000000   1.0000000
B2   B   0.443681674197059   0.724539337123359   0.375000000000000   1.0000000
B2   B   0.280665662803509   0.222126546164141   0.375000000000000   1.0000000
B2   B   0.776090233925116   0.721641966970408   0.375000000000000   1.0000000
B2   B   0.611050057026642   0.218757872854245   0.375000000000000   1.0000000
B2   B   0.945777981679775   0.222715567939498   0.375000000000000   1.0000000
B2   B   0.111145680441458   0.388904525428606   0.875000000000000   1.0000000
B2   B   0.277789064399160   0.888902778944916   0.875000000000000   1.0000000
B2   B   0.611100300506199   0.888866101889090   0.875000000000000   1.0000000
B2   B   0.444494804800133   0.388914069066731   0.875000000000000   1.0000000
B2   B   0.944447228426758   0.888873023895742   0.875000000000000   1.0000000
B2   B   0.109381351503156   0.887438791643978   0.375000000000000   1.0000000
B2   B   0.777750073383280   0.388914082971177   0.875000000000000   1.0000000
B2   B   0.443720220084507   0.888526776708918   0.375000000000000   1.0000000
B2   B   0.280665662803509   0.391872449972697   0.375000000000000   1.0000000
B2   B   0.276495147300520   0.556531328065995   0.375000000000000   1.0000000
B2   B   0.608085564969658   0.382961732711941   0.375000000000000   1.0000000
B2   B   0.778325119300086   0.889803944191219   0.375000000000000   1.0000000
B2   B   0.943768985063094   0.388643035889185   0.375000000000000   1.0000000
B2   B   0.111123416128720   0.555561367261571   0.875000000000000   1.0000000
B2   B   0.277806307978932   0.055587756629119   0.875000000000000   1.0000000
B2   B   0.777745219187597   0.555539276260466   0.875000000000000   1.0000000
B2   B   0.611100300506199   0.055567531950438   0.875000000000000   1.0000000
B2   B   0.944461392574026   0.055555876923029   0.875000000000000   1.0000000
B2   B   0.055637857709485   0.111177862190728   0.125106948647082   1.0000000
B2   B   0.555662702644014   0.611043516172400   0.124785718517252   1.0000000
B2   B   0.389008567696093   0.111293883190098   0.125173633858869   1.0000000
B2   B   0.888746272828873   0.611039803081107   0.125146622596093   1.0000000
B2   B   0.722260185702891   0.111138772060983   0.125072075016967   1.0000000
B2   B   0.055527517623775   0.777783754119616   0.624917317180792   1.0000000
B2   B   0.388965477688346   0.777769100355426   0.624920814690493   1.0000000
B2   B   0.222356125004413   0.277844729168874   0.624771420585387   1.0000000
B2   B   0.722213733238645   0.777747449684930   0.624983703467441   1.0000000
B2   B   0.555662702644014   0.277952519804951   0.625214281482748   1.0000000
B2   B   0.888911403384498   0.277776091481248   0.624901111201560   1.0000000
B2   B   0.222259135778484   0.777796234555910   0.125056278395944   1.0000000
B2   B   0.055637857709485   0.277793328852093   0.125106948647082   1.0000000
B2   B   0.388967904808210   0.277837629856432   0.125820692795185   1.0000000
B2   B   0.555622861002607   0.777746434262284   0.125074401005803   1.0000000
B2   B   0.888834111058623   0.777760260353727   0.125117012486081   1.0000000
B2   B   0.722213733238645   0.277799616887052   0.125016296532560   1.0000000
B2   B   0.055590758435027   0.944507356400076   0.624901600513913   1.0000000
B2   B   0.388965477688346   0.944529710666255   0.624920814690493   1.0000000
B2   B   0.222330351725183   0.444417846501984   0.624858166614516   1.0000000
B2   B   0.555792759503646   0.444563046418487   0.623340792289121   1.0000000
B2   B   0.722260185702891   0.944454746975242   0.624927924983033   1.0000000
B2   B   0.888834111058623   0.444407184038232   0.624882987513920   1.0000000
B2   B   0.055590758435027   0.444416735368280   0.125098399486087   1.0000000
B2   B   0.222290562891165   0.944551683075410   0.125100835146762   1.0000000
B2   B   0.555616770500779   0.944475051917054   0.125085606486924   1.0000000
B2   B   0.388967904808210   0.444463608285114   0.125820692795185   1.0000000
B2   B   0.888911403384498   0.944468645236585   0.125098888798440   1.0000000
B2   B   0.722087174011453   0.444381208649956   0.124667938411230   1.0000000
B2   B   0.222290562891165   0.611072213149090   0.624899164853237   1.0000000
B2   B   0.055637857709485   0.111177862190728   0.624893051352918   1.0000000
B2   B   0.555662702644014   0.611043516172400   0.625214281482748   1.0000000
B2   B   0.389008567696093   0.111293883190098   0.624826366141131   1.0000000
B2   B   0.888746272828873   0.611039803081107   0.624853377403907   1.0000000
B2   B   0.055527517623775   0.611077096837495   0.125082682819209   1.0000000
B2   B   0.722260185702891   0.111138772060983   0.624927924983033   1.0000000
B2   B   0.222330351725183   0.111245838556535   0.125141833385485   1.0000000
B2   B   0.389008567696093   0.611048017839338   0.125173633858869   1.0000000
B2   B   0.722087174011453   0.611039298694832   0.124667938411230   1.0000000
B2   B   0.555622861002607   0.111209760073659   0.125074401005803   1.0000000
B2   B   0.389008567696093   0.611048017839338   0.624826366141131   1.0000000
B2   B   0.888938399659762   0.111135866496552   0.125058797702193   1.0000000
B2   B   0.222259135778484   0.777796234555910   0.624943721604056   1.0000000
B2   B   0.055637857709485   0.277793328852093   0.624893051352918   1.0000000
B2   B   0.388967904808210   0.277837629856432   0.624179307204815   1.0000000
B2   B   0.555622861002607   0.777746434262284   0.624925598994197   1.0000000
B2   B   0.888834111058623   0.777760260353727   0.624882987513920   1.0000000
B2   B   0.722213733238645   0.277799616887052   0.624983703467441   1.0000000
B2   B   0.055527517623775   0.777783754119616   0.125082682819209   1.0000000
B2   B   0.388965477688346   0.777769100355426   0.125079185309507   1.0000000
B2   B   0.222356125004413   0.277844729168874   0.125228579414613   1.0000000
B2   B   0.722213733238645   0.777747449684930   0.125016296532560   1.0000000
B2   B   0.555662702644014   0.277952519804951   0.124785718517252   1.0000000
B2   B   0.888911403384498   0.277776091481248   0.125098888798440   1.0000000
B2   B   0.055590758435027   0.444416735368280   0.624901600513913   1.0000000
B2   B   0.222290562891165   0.944551683075410   0.624899164853237   1.0000000
B2   B   0.555616770500779   0.944475051917054   0.624914393513077   1.0000000
B2   B   0.388967904808210   0.444463608285114   0.624179307204815   1.0000000
B2   B   0.888911403384498   0.944468645236585   0.624901111201560   1.0000000
B2   B   0.055590758435027   0.944507356400076   0.125098399486087   1.0000000
B2   B   0.722087174011453   0.444381208649956   0.625332061588770   1.0000000
B2   B   0.388965477688346   0.944529710666255   0.125079185309507   1.0000000
B2   B   0.222330351725183   0.444417846501984   0.125141833385485   1.0000000
B2   B   0.222290562891165   0.611072213149090   0.125100835146762   1.0000000
B2   B   0.555792759503646   0.444563046418487   0.126659207710878   1.0000000
B2   B   0.722260185702891   0.944454746975242   0.125072075016967   1.0000000
B2   B   0.888834111058623   0.444407184038232   0.125117012486081   1.0000000
B2   B   0.055527517623775   0.611077096837495   0.624917317180792   1.0000000
B2   B   0.222330351725183   0.111245838556535   0.624858166614516   1.0000000
B2   B   0.722087174011453   0.611039298694832   0.625332061588770   1.0000000
B2   B   0.555622861002607   0.111209760073659   0.624925598994197   1.0000000
B2   B   0.888938399659762   0.111135866496552   0.624941202297807   1.0000000


