data_1
_audit_creation_method   'vasp2cif'
_cell_length_a    14.93631414619966
_cell_length_b    14.936314146199727
_cell_length_c    13.341276283792837
_cell_angle_alpha    90.0
_cell_angle_beta    90.0
_cell_angle_gamma    119.99999999999984

_symmetry_space_group_name_H-M    'P 1'
loop_
_atom_site_label
_atom_site_type_symbol
_atom_site_fract_x
_atom_site_fract_y
_atom_site_fract_z
_atom_site_occupancy
Se2   Se   0.555555555555557   0.444444444444443   0.375000000000000   1.0000000
N2   N   0.111089173147729   0.055548042221606   0.125016637746428   1.0000000
N2   N   0.611148966663549   0.555631266660427   0.123783809402662   1.0000000
N2   N   0.444461237723150   0.055583950318914   0.125201983900127   1.0000000
N2   N   0.944416049681086   0.555538762276849   0.125201983900127   1.0000000
N2   N   0.777791601464912   0.055562467399124   0.124875817290587   1.0000000
N2   N   0.111098413891530   0.722215873612430   0.624934155174104   1.0000000
N2   N   0.444461237723150   0.722210620737573   0.624798016099873   1.0000000
N2   N   0.277717530741682   0.222205879027515   0.624984277695791   1.0000000
N2   N   0.777794120972484   0.722282469258317   0.624984277695791   1.0000000
N2   N   0.611155014952504   0.222205879027515   0.624984277695791   1.0000000
N2   N   0.944437532600876   0.222208398535088   0.625124182709412   1.0000000
N2   N   0.277784126387571   0.722215873612430   0.125065844825896   1.0000000
N2   N   0.111044028614021   0.222188680973675   0.124922601221238   1.0000000
N2   N   0.444468486142296   0.222270305617927   0.125144131536899   1.0000000
N2   N   0.611155014952504   0.722282469258317   0.125015722304209   1.0000000
N2   N   0.944416049681086   0.722210620737573   0.125201983900127   1.0000000
N2   N   0.777811319026326   0.222188680973675   0.124922601221238   1.0000000
N2   N   0.111107664708189   0.888892335291812   0.624969746676450   1.0000000
N2   N   0.444451337250293   0.888892335291812   0.624969746676450   1.0000000
N2   N   0.277717530741682   0.388844985047496   0.624984277695791   1.0000000
N2   N   0.611148966663549   0.388851033336451   0.626216190597339   1.0000000
N2   N   0.777811319026326   0.888955971385979   0.625077398778762   1.0000000
N2   N   0.944451957778394   0.388874464259452   0.624983362253572   1.0000000
N2   N   0.111089173147729   0.388874464259452   0.125016637746428   1.0000000
N2   N   0.277784126387571   0.888901586108470   0.125065844825896   1.0000000
N2   N   0.611125535740549   0.888910826852270   0.125016637746428   1.0000000
N2   N   0.444368733339572   0.388851033336451   0.123783809402662   1.0000000
N2   N   0.944451957778394   0.888910826852270   0.125016637746428   1.0000000
N2   N   0.777794120972484   0.388844985047496   0.125015722304209   1.0000000
N2   N   0.277789379262428   0.555538762276849   0.624798016099873   1.0000000
N2   N   0.111089173147729   0.055548042221606   0.624983362253572   1.0000000
N2   N   0.611148966663549   0.555631266660427   0.626216190597339   1.0000000
N2   N   0.444461237723150   0.055583950318914   0.624798016099873   1.0000000
N2   N   0.944416049681086   0.555538762276849   0.624798016099873   1.0000000
N2   N   0.111107664708189   0.555548662749706   0.125030253323549   1.0000000
N2   N   0.777791601464912   0.055562467399124   0.625124182709412   1.0000000
N2   N   0.277789379262428   0.055583950318914   0.125201983900127   1.0000000
N2   N   0.444468486142296   0.555531513857705   0.125144131536899   1.0000000
N2   N   0.777729694382073   0.555531513857705   0.125144131536899   1.0000000
N2   N   0.611125535740549   0.055548042221606   0.125016637746428   1.0000000
N2   N   0.444468486142296   0.555531513857705   0.624855868463102   1.0000000
N2   N   0.944437532600876   0.055562467399124   0.124875817290587   1.0000000
N2   N   0.277784126387571   0.722215873612430   0.624934155174104   1.0000000
N2   N   0.111044028614021   0.222188680973675   0.625077398778762   1.0000000
N2   N   0.444468486142296   0.222270305617927   0.624855868463102   1.0000000
N2   N   0.611155014952504   0.722282469258317   0.624984277695791   1.0000000
N2   N   0.944416049681086   0.722210620737573   0.624798016099873   1.0000000
N2   N   0.777811319026326   0.222188680973675   0.625077398778762   1.0000000
N2   N   0.111098413891530   0.722215873612430   0.125065844825896   1.0000000
N2   N   0.444461237723150   0.722210620737573   0.125201983900127   1.0000000
N2   N   0.277717530741682   0.222205879027515   0.125015722304209   1.0000000
N2   N   0.777794120972484   0.722282469258317   0.125015722304209   1.0000000
N2   N   0.611155014952504   0.222205879027515   0.125015722304209   1.0000000
N2   N   0.944437532600876   0.222208398535088   0.124875817290587   1.0000000
N2   N   0.111089173147729   0.388874464259452   0.624983362253572   1.0000000
N2   N   0.277784126387571   0.888901586108470   0.624934155174104   1.0000000
N2   N   0.611125535740549   0.888910826852270   0.624983362253572   1.0000000
N2   N   0.444368733339572   0.388851033336451   0.626216190597339   1.0000000
N2   N   0.944451957778394   0.888910826852270   0.624983362253572   1.0000000
N2   N   0.111107664708189   0.888892335291812   0.125030253323549   1.0000000
N2   N   0.777794120972484   0.388844985047496   0.624984277695791   1.0000000
N2   N   0.444451337250293   0.888892335291812   0.125030253323549   1.0000000
N2   N   0.277717530741682   0.388844985047496   0.125015722304209   1.0000000
N2   N   0.277789379262428   0.555538762276849   0.125201983900127   1.0000000
N2   N   0.611148966663549   0.388851033336451   0.123783809402662   1.0000000
N2   N   0.777811319026326   0.888955971385979   0.124922601221238   1.0000000
N2   N   0.944451957778394   0.388874464259452   0.125016637746428   1.0000000
N2   N   0.111107664708189   0.555548662749706   0.624969746676450   1.0000000
N2   N   0.277789379262428   0.055583950318914   0.624798016099873   1.0000000
N2   N   0.777729694382073   0.555531513857705   0.624855868463102   1.0000000
N2   N   0.611125535740549   0.055548042221606   0.624983362253572   1.0000000
N2   N   0.944437532600876   0.055562467399124   0.625124182709412   1.0000000
N2   N   0.054623547928964   0.110518442683731   0.375000000000000   1.0000000
N2   N   0.554762775310682   0.619588693999459   0.375000000000000   1.0000000
N2   N   0.387331884146489   0.107997101626319   0.375000000000000   1.0000000
N2   N   0.892002898373680   0.612668115853513   0.375000000000000   1.0000000
N2   N   0.722561561421431   0.110518442683731   0.375000000000000   1.0000000
N2   N   0.055554054558363   0.777775329963356   0.875000000000000   1.0000000
N2   N   0.388887942071657   0.777775329963356   0.875000000000000   1.0000000
N2   N   0.222221058831581   0.277777196082458   0.875000000000000   1.0000000
N2   N   0.722222803917541   0.777778941168419   0.875000000000000   1.0000000
N2   N   0.555554215016839   0.277777293249482   0.875000000000000   1.0000000
N2   N   0.888894846193568   0.277787867079770   0.875000000000000   1.0000000
N2   N   0.222222222222221   0.777777777777779   0.375000000000000   1.0000000
N2   N   0.054623547928964   0.277438438578568   0.375000000000000   1.0000000
N2   N   0.380411306000541   0.268507414644559   0.375000000000000   1.0000000
N2   N   0.555041140076767   0.781228402623415   0.375000000000000   1.0000000
N2   N   0.892853929213313   0.781228402623415   0.375000000000000   1.0000000
N2   N   0.723635560385647   0.276364439614353   0.375000000000000   1.0000000
N2   N   0.055560840610230   0.944439159389770   0.875000000000000   1.0000000
N2   N   0.388887942071657   0.944445945441638   0.875000000000000   1.0000000
N2   N   0.222224441425029   0.444451028111482   0.875000000000000   1.0000000
N2   N   0.555555555555557   0.444444444444443   0.875000000000000   1.0000000
N2   N   0.722212132920231   0.944440312447135   0.875000000000000   1.0000000
N2   N   0.888893253353118   0.444451028111482   0.875000000000000   1.0000000
N2   N   0.055742680597555   0.444818694528439   0.375000000000000   1.0000000
N2   N   0.221750964573397   0.943252660325247   0.375000000000000   1.0000000
N2   N   0.555181305471561   0.944257319402446   0.375000000000000   1.0000000
N2   N   0.380411306000541   0.445237224689318   0.375000000000000   1.0000000
N2   N   0.889481557316268   0.945376452071036   0.375000000000000   1.0000000
N2   N   0.731492585355441   0.445237224689318   0.375000000000000   1.0000000
N2   N   0.222224670036645   0.611112057928343   0.875000000000000   1.0000000
N2   N   0.055559687552866   0.111105153806431   0.875000000000000   1.0000000
N2   N   0.555554215016839   0.611110255100693   0.875000000000000   1.0000000
N2   N   0.388891052684692   0.111115438702728   0.875000000000000   1.0000000
N2   N   0.888884561297272   0.611108947315307   0.875000000000000   1.0000000
N2   N   0.056747339674753   0.611831637581485   0.375000000000000   1.0000000
N2   N   0.722212132920231   0.111105153806431   0.875000000000000   1.0000000
N2   N   0.218771597376584   0.107146070786687   0.375000000000000   1.0000000
N2   N   0.387331884146489   0.612668115853513   0.375000000000000   1.0000000
N2   N   0.731492585355441   0.619588693999459   0.375000000000000   1.0000000
N2   N   0.555041140076767   0.107146070786687   0.375000000000000   1.0000000
N2   N   0.388891052684692   0.611108947315307   0.875000000000000   1.0000000
N2   N   0.888888888888886   0.111111111111114   0.375000000000000   1.0000000
N2   N   0.222222222222221   0.777777777777779   0.875000000000000   1.0000000
N2   N   0.055559687552866   0.277787867079770   0.875000000000000   1.0000000
N2   N   0.388889744899307   0.277777293249482   0.875000000000000   1.0000000
N2   N   0.555548971888517   0.777775558574971   0.875000000000000   1.0000000
N2   N   0.888893253353118   0.777775558574971   0.875000000000000   1.0000000
N2   N   0.722222803917541   0.277777196082458   0.875000000000000   1.0000000
N2   N   0.056747339674753   0.778249035426604   0.375000000000000   1.0000000
N2   N   0.388168362418515   0.778249035426604   0.375000000000000   1.0000000
N2   N   0.219395545895371   0.276364439614353   0.375000000000000   1.0000000
N2   N   0.723635560385647   0.780604454104629   0.375000000000000   1.0000000
N2   N   0.554762775310682   0.268507414644559   0.375000000000000   1.0000000
N2   N   0.889481557316268   0.277438438578568   0.375000000000000   1.0000000
N2   N   0.055560840610230   0.444455014553789   0.875000000000000   1.0000000
N2   N   0.222224670036645   0.944445945441638   0.875000000000000   1.0000000
N2   N   0.555544985446211   0.944439159389770   0.875000000000000   1.0000000
N2   N   0.388889744899307   0.444445784983161   0.875000000000000   1.0000000
N2   N   0.888894846193568   0.944440312447134   0.875000000000000   1.0000000
N2   N   0.055742680597555   0.944257319402446   0.375000000000000   1.0000000
N2   N   0.722222706750518   0.444445784983161   0.875000000000000   1.0000000
N2   N   0.388168362418515   0.943252660325247   0.375000000000000   1.0000000
N2   N   0.218771597376584   0.444958859923233   0.375000000000000   1.0000000
N2   N   0.221750964573397   0.611831637581485   0.375000000000000   1.0000000
N2   N   0.722561561421431   0.945376452071036   0.375000000000000   1.0000000
N2   N   0.892853929213313   0.444958859923233   0.375000000000000   1.0000000
N2   N   0.055554054558363   0.611112057928343   0.875000000000000   1.0000000
N2   N   0.222224441425029   0.111106746646883   0.875000000000000   1.0000000
N2   N   0.722222706750518   0.611110255100693   0.875000000000000   1.0000000
N2   N   0.555548971888517   0.111106746646883   0.875000000000000   1.0000000
N2   N   0.888888888888886   0.111111111111114   0.875000000000000   1.0000000
B2   B   0.109230418398820   0.054061511062980   0.375000000000000   1.0000000
B2   B   0.623754181121521   0.580841695576370   0.375000000000000   1.0000000
B2   B   0.443790873521832   0.053483724629633   0.375000000000000   1.0000000
B2   B   0.946516275370366   0.556209126478167   0.375000000000000   1.0000000
B2   B   0.778219106272933   0.055776219803134   0.375000000000000   1.0000000
B2   B   0.111100083906022   0.722216708619676   0.875000000000000   1.0000000
B2   B   0.444448329130795   0.722205258534580   0.875000000000000   1.0000000
B2   B   0.277796785253751   0.222240246463945   0.875000000000000   1.0000000
B2   B   0.777759753536055   0.722203214746248   0.875000000000000   1.0000000
B2   B   0.611110127876865   0.222240246463945   0.875000000000000   1.0000000
B2   B   0.944451275551623   0.222235884436583   0.875000000000000   1.0000000
B2   B   0.277441955475794   0.722558044524206   0.375000000000000   1.0000000
B2   B   0.109340473941874   0.221336903637601   0.375000000000000   1.0000000
B2   B   0.442391679664663   0.218116692662662   0.375000000000000   1.0000000
B2   B   0.611560136275303   0.728476536796553   0.375000000000000   1.0000000
B2   B   0.946516275370366   0.723640482225536   0.375000000000000   1.0000000
B2   B   0.778663096362398   0.221336903637601   0.375000000000000   1.0000000
B2   B   0.111114118221650   0.888885881778351   0.875000000000000   1.0000000
B2   B   0.444438430223371   0.888885881778351   0.875000000000000   1.0000000
B2   B   0.277796785253751   0.388889872123136   0.875000000000000   1.0000000
B2   B   0.611105163129378   0.388894836870622   0.875000000000000   1.0000000
B2   B   0.777770901273469   0.888875135880267   0.875000000000000   1.0000000
B2   B   0.944445813737175   0.388903007577239   0.875000000000000   1.0000000
B2   B   0.109230418398820   0.388502240669168   0.375000000000000   1.0000000
B2   B   0.277441955475794   0.888217244284916   0.375000000000000   1.0000000
B2   B   0.611497759330833   0.890769581601181   0.375000000000000   1.0000000
B2   B   0.419158304423631   0.376245818878479   0.375000000000000   1.0000000
B2   B   0.945938488937021   0.890769581601181   0.375000000000000   1.0000000
B2   B   0.783583067187922   0.388439863724697   0.375000000000000   1.0000000
B2   B   0.277794741465419   0.555551670869204   0.875000000000000   1.0000000
B2   B   0.111123860506736   0.055554186262826   0.875000000000000   1.0000000
B2   B   0.611105163129378   0.555543659592084   0.875000000000000   1.0000000
B2   B   0.444448329130795   0.055576403929549   0.875000000000000   1.0000000
B2   B   0.944423596070450   0.555551670869204   0.875000000000000   1.0000000
B2   B   0.111240404532688   0.555814142398705   0.375000000000000   1.0000000
B2   B   0.777764115563417   0.055548724448376   0.875000000000000   1.0000000
B2   B   0.276359517774465   0.053483724629633   0.375000000000000   1.0000000
B2   B   0.442391679664663   0.557608320335338   0.375000000000000   1.0000000
B2   B   0.781883307337337   0.557608320335338   0.375000000000000   1.0000000
B2   B   0.611497759330833   0.054061511062980   0.375000000000000   1.0000000
B2   B   0.444459479355706   0.555540520644294   0.875000000000000   1.0000000
B2   B   0.944223780196866   0.055776219803134   0.375000000000000   1.0000000
B2   B   0.277783291380325   0.722216708619676   0.875000000000000   1.0000000
B2   B   0.111124864119732   0.222229098726530   0.875000000000000   1.0000000
B2   B   0.444459479355706   0.222252292044747   0.875000000000000   1.0000000
B2   B   0.611110127876865   0.722203214746248   0.875000000000000   1.0000000
B2   B   0.944423596070450   0.722205258534580   0.875000000000000   1.0000000
B2   B   0.777770901273469   0.222229098726530   0.875000000000000   1.0000000
B2   B   0.111782755715084   0.722558044524206   0.375000000000000   1.0000000
B2   B   0.443790873521832   0.723640482225536   0.375000000000000   1.0000000
B2   B   0.271523463203447   0.216416932812078   0.375000000000000   1.0000000
B2   B   0.783583067187922   0.728476536796553   0.375000000000000   1.0000000
B2   B   0.611560136275303   0.216416932812078   0.375000000000000   1.0000000
B2   B   0.944223780196866   0.221780893727067   0.375000000000000   1.0000000
B2   B   0.111123860506736   0.388903007577239   0.875000000000000   1.0000000
B2   B   0.277783291380325   0.888899916093978   0.875000000000000   1.0000000
B2   B   0.611096992422764   0.888876139493264   0.875000000000000   1.0000000
B2   B   0.444456340407915   0.388894836870622   0.875000000000000   1.0000000
B2   B   0.944445813737175   0.888876139493264   0.875000000000000   1.0000000
B2   B   0.111240404532688   0.888759595467311   0.375000000000000   1.0000000
B2   B   0.777759753536055   0.388889872123136   0.875000000000000   1.0000000
B2   B   0.444185857601294   0.888759595467311   0.375000000000000   1.0000000
B2   B   0.271523463203447   0.388439863724697   0.375000000000000   1.0000000
B2   B   0.276359517774465   0.556209126478167   0.375000000000000   1.0000000
B2   B   0.623754181121521   0.376245818878479   0.375000000000000   1.0000000
B2   B   0.778663096362398   0.890659526058125   0.375000000000000   1.0000000
B2   B   0.945938488937021   0.388502240669168   0.375000000000000   1.0000000
B2   B   0.111114118221650   0.555561569776627   0.875000000000000   1.0000000
B2   B   0.277794741465419   0.055576403929549   0.875000000000000   1.0000000
B2   B   0.777747707955253   0.555540520644294   0.875000000000000   1.0000000
B2   B   0.611096992422764   0.055554186262826   0.875000000000000   1.0000000
B2   B   0.944451275551623   0.055548724448376   0.875000000000000   1.0000000
B2   B   0.055534263815213   0.111122044223404   0.125060084423713   1.0000000
B2   B   0.555608963203996   0.611093232076870   0.124885237127098   1.0000000
B2   B   0.388945346849554   0.111224027032450   0.125416057252816   1.0000000
B2   B   0.888775972967549   0.611054653150447   0.125416057252816   1.0000000
B2   B   0.722254447074855   0.111122044223404   0.125060084423713   1.0000000
B2   B   0.055507053972905   0.777762045566475   0.624794189859288   1.0000000
B2   B   0.388921658260233   0.777762045566475   0.624794189859288   1.0000000
B2   B   0.222204390544590   0.277768861938962   0.624874058224193   1.0000000
B2   B   0.722231138061038   0.777795609455411   0.624874058224193   1.0000000
B2   B   0.555608963203996   0.277849064460461   0.625114762872903   1.0000000
B2   B   0.888877955776596   0.277745552925145   0.624939915576286   1.0000000
B2   B   0.222222222222221   0.777777777777779   0.125167707232393   1.0000000
B2   B   0.055534263815213   0.277745552925145   0.125060084423713   1.0000000
B2   B   0.388906767923130   0.277849064460461   0.124885237127098   1.0000000
B2   B   0.555606657841430   0.777765414187802   0.125240061214824   1.0000000
B2   B   0.888825423013035   0.777765414187802   0.125240061214824   1.0000000
B2   B   0.722231138061038   0.277768861938962   0.125125941775807   1.0000000
B2   B   0.055537430228286   0.944462569771715   0.624872739226422   1.0000000
B2   B   0.388921658260233   0.944492946027095   0.624794189859288   1.0000000
B2   B   0.222234585812199   0.444393342158571   0.624759938785177   1.0000000
B2   B   0.555555555555557   0.444444444444443   0.625611861889203   1.0000000
B2   B   0.722254447074855   0.944465736184788   0.624939915576286   1.0000000
B2   B   0.888825423013035   0.444393342158571   0.624759938785177   1.0000000
B2   B   0.055537430228286   0.444408193789901   0.125127260773579   1.0000000
B2   B   0.222237954433527   0.944492946027095   0.125205810140712   1.0000000
B2   B   0.555591806210100   0.944462569771715   0.125127260773579   1.0000000
B2   B   0.388906767923130   0.444391036796004   0.124885237127098   1.0000000
B2   B   0.888877955776596   0.944465736184788   0.125060084423713   1.0000000
B2   B   0.722150935539538   0.444391036796004   0.124885237127098   1.0000000
B2   B   0.222237954433527   0.611078341739767   0.624794189859288   1.0000000
B2   B   0.055534263815213   0.111122044223404   0.624939915576286   1.0000000
B2   B   0.555608963203996   0.611093232076870   0.625114762872903   1.0000000
B2   B   0.388945346849554   0.111224027032450   0.624583942747183   1.0000000
B2   B   0.888775972967549   0.611054653150447   0.624583942747183   1.0000000
B2   B   0.055507053972905   0.611078341739767   0.125205810140712   1.0000000
B2   B   0.722254447074855   0.111122044223404   0.624939915576286   1.0000000
B2   B   0.222234585812199   0.111174576986964   0.125240061214824   1.0000000
B2   B   0.388945346849554   0.611054653150447   0.125416057252816   1.0000000
B2   B   0.722150935539538   0.611093232076870   0.124885237127098   1.0000000
B2   B   0.555606657841430   0.111174576986964   0.125240061214824   1.0000000
B2   B   0.388945346849554   0.611054653150447   0.624583942747183   1.0000000
B2   B   0.888888888888886   0.111111111111114   0.125009703338383   1.0000000
B2   B   0.222222222222221   0.777777777777779   0.624832292767607   1.0000000
B2   B   0.055534263815213   0.277745552925145   0.624939915576286   1.0000000
B2   B   0.388906767923130   0.277849064460461   0.625114762872903   1.0000000
B2   B   0.555606657841430   0.777765414187802   0.624759938785177   1.0000000
B2   B   0.888825423013035   0.777765414187802   0.624759938785177   1.0000000
B2   B   0.722231138061038   0.277768861938962   0.624874058224193   1.0000000
B2   B   0.055507053972905   0.777762045566475   0.125205810140712   1.0000000
B2   B   0.388921658260233   0.777762045566475   0.125205810140712   1.0000000
B2   B   0.222204390544590   0.277768861938962   0.125125941775807   1.0000000
B2   B   0.722231138061038   0.777795609455411   0.125125941775807   1.0000000
B2   B   0.555608963203996   0.277849064460461   0.124885237127098   1.0000000
B2   B   0.888877955776596   0.277745552925145   0.125060084423713   1.0000000
B2   B   0.055537430228286   0.444408193789901   0.624872739226422   1.0000000
B2   B   0.222237954433527   0.944492946027095   0.624794189859288   1.0000000
B2   B   0.555591806210100   0.944462569771715   0.624872739226422   1.0000000
B2   B   0.388906767923130   0.444391036796004   0.625114762872903   1.0000000
B2   B   0.888877955776596   0.944465736184788   0.624939915576286   1.0000000
B2   B   0.055537430228286   0.944462569771715   0.125127260773579   1.0000000
B2   B   0.722150935539538   0.444391036796004   0.625114762872903   1.0000000
B2   B   0.388921658260233   0.944492946027095   0.125205810140712   1.0000000
B2   B   0.222234585812199   0.444393342158571   0.125240061214824   1.0000000
B2   B   0.222237954433527   0.611078341739767   0.125205810140712   1.0000000
B2   B   0.555555555555557   0.444444444444443   0.124388138110797   1.0000000
B2   B   0.722254447074855   0.944465736184788   0.125060084423713   1.0000000
B2   B   0.888825423013035   0.444393342158571   0.125240061214824   1.0000000
B2   B   0.055507053972905   0.611078341739767   0.624794189859288   1.0000000
B2   B   0.222234585812199   0.111174576986964   0.624759938785177   1.0000000
B2   B   0.722150935539538   0.611093232076870   0.625114762872903   1.0000000
B2   B   0.555606657841430   0.111174576986964   0.624759938785177   1.0000000
B2   B   0.888888888888886   0.111111111111114   0.624990296661616   1.0000000


