data_1
_audit_creation_method   'vasp2cif'
_cell_length_a    14.93631414619966
_cell_length_b    14.936314146199727
_cell_length_c    13.341276283792837
_cell_angle_alpha    90.0
_cell_angle_beta    90.0
_cell_angle_gamma    119.99999999999984

_symmetry_space_group_name_H-M    'P 1'
loop_
_atom_site_label
_atom_site_type_symbol
_atom_site_fract_x
_atom_site_fract_y
_atom_site_fract_z
_atom_site_occupancy
C2   C   0.715591878930248   0.608194933258154   0.375000000000000   1.0000000
C2   C   0.609284367367717   0.556240099065069   0.375000000000000   1.0000000
C2   C   0.444937184864703   0.390403102944211   0.375000000000000   1.0000000
C2   C   0.551320773725523   0.445229624811074   0.375000000000000   1.0000000
N2   N   0.111103964375371   0.055551100345062   0.125067029183700   1.0000000
N2   N   0.611052829923045   0.555530383023012   0.124004909203604   1.0000000
N2   N   0.444439219344755   0.055559089351184   0.125060642709882   1.0000000
N2   N   0.944440813141341   0.555545282629975   0.124956863369011   1.0000000
N2   N   0.777778770211456   0.055549043240222   0.125028645179247   1.0000000
N2   N   0.111099707386180   0.722211782345080   0.624991202877740   1.0000000
N2   N   0.444437497209467   0.722199788320512   0.624901558051574   1.0000000
N2   N   0.277761660119422   0.222220302016652   0.624840205555882   1.0000000
N2   N   0.777784125092022   0.722232921392402   0.625452049893048   1.0000000
N2   N   0.611106562413913   0.222232128343009   0.624945662392109   1.0000000
N2   N   0.944444442410945   0.222217087934801   0.624970991192260   1.0000000
N2   N   0.277770250442479   0.722211892977674   0.125030583931049   1.0000000
N2   N   0.111093744610621   0.222209605785626   0.125075040940563   1.0000000
N2   N   0.444437429248600   0.222236403611822   0.125060154558424   1.0000000
N2   N   0.611105359433306   0.722196046916193   0.125020092263393   1.0000000
N2   N   0.944435342386959   0.722213443864900   0.124958637801299   1.0000000
N2   N   0.777779769592072   0.222220995234289   0.125020353083075   1.0000000
N2   N   0.111101187828718   0.888883110258717   0.624995437804291   1.0000000
N2   N   0.444439246543514   0.888882932360398   0.624961474524687   1.0000000
N2   N   0.277751960884226   0.388864864507436   0.624848728442544   1.0000000
N2   N   0.611109866160008   0.388895556114917   0.625389434378094   1.0000000
N2   N   0.777781043199863   0.888881566500984   0.625000617195430   1.0000000
N2   N   0.944446657531107   0.388884198659411   0.624995041390279   1.0000000
N2   N   0.111103366569645   0.388880753711185   0.125075741461283   1.0000000
N2   N   0.277771227344992   0.888884880781249   0.125022062263505   1.0000000
N2   N   0.611106554934737   0.888874677342562   0.125052743512777   1.0000000
N2   N   0.444382353720091   0.388862751460606   0.124388859583807   1.0000000
N2   N   0.944444127909726   0.888890246889886   0.124960632575299   1.0000000
N2   N   0.777780145094060   0.388890948697357   0.124964360579091   1.0000000
N2   N   0.277767940575278   0.555539255671610   0.624884750923945   1.0000000
N2   N   0.111103964375371   0.055551100345062   0.624932970816300   1.0000000
N2   N   0.611052829923045   0.555530383023012   0.625995090796395   1.0000000
N2   N   0.444439219344755   0.055559089351184   0.624939357290118   1.0000000
N2   N   0.944440813141341   0.555545282629975   0.625043136630989   1.0000000
N2   N   0.111103747864584   0.555545963854844   0.125018561071375   1.0000000
N2   N   0.777778770211456   0.055549043240222   0.624971354820753   1.0000000
N2   N   0.277770720033267   0.055556680892517   0.125065968582286   1.0000000
N2   N   0.444423558435031   0.555518407733637   0.125138917538740   1.0000000
N2   N   0.777782061843900   0.555543519816735   0.124557755264546   1.0000000
N2   N   0.611105973509964   0.055553698520016   0.125038033481793   1.0000000
N2   N   0.444423558435031   0.555518407733637   0.624861082461260   1.0000000
N2   N   0.944445841273677   0.055553478409786   0.125014849083653   1.0000000
N2   N   0.277770250442479   0.722211892977674   0.624969416068952   1.0000000
N2   N   0.111093744610621   0.222209605785626   0.624924959059437   1.0000000
N2   N   0.444437429248600   0.222236403611822   0.624939845441576   1.0000000
N2   N   0.611105359433306   0.722196046916193   0.624979907736607   1.0000000
N2   N   0.944435342386959   0.722213443864900   0.625041362198701   1.0000000
N2   N   0.777779769592072   0.222220995234289   0.624979646916924   1.0000000
N2   N   0.111099707386180   0.722211782345080   0.125008797122260   1.0000000
N2   N   0.444437497209467   0.722199788320512   0.125098441948425   1.0000000
N2   N   0.277761660119422   0.222220302016652   0.125159794444117   1.0000000
N2   N   0.777784125092022   0.722232921392402   0.124547950106951   1.0000000
N2   N   0.611106562413913   0.222232128343009   0.125054337607891   1.0000000
N2   N   0.944444442410945   0.222217087934801   0.125029008807740   1.0000000
N2   N   0.111103366569645   0.388880753711185   0.624924258538717   1.0000000
N2   N   0.277771227344992   0.888884880781249   0.624977937736495   1.0000000
N2   N   0.611106554934737   0.888874677342562   0.624947256487222   1.0000000
N2   N   0.444382353720091   0.388862751460606   0.625611140416193   1.0000000
N2   N   0.944444127909726   0.888890246889886   0.625039367424700   1.0000000
N2   N   0.111101187828718   0.888883110258717   0.125004562195709   1.0000000
N2   N   0.777780145094060   0.388890948697357   0.625035639420910   1.0000000
N2   N   0.444439246543514   0.888882932360398   0.125038525475313   1.0000000
N2   N   0.277751960884226   0.388864864507436   0.125151271557456   1.0000000
N2   N   0.277767940575278   0.555539255671610   0.125115249076055   1.0000000
N2   N   0.611109866160008   0.388895556114917   0.124610565621905   1.0000000
N2   N   0.777781043199863   0.888881566500984   0.124999382804570   1.0000000
N2   N   0.944446657531107   0.388884198659411   0.125004958609722   1.0000000
N2   N   0.111103747864584   0.555545963854844   0.624981438928625   1.0000000
N2   N   0.277770720033267   0.055556680892517   0.624934031417714   1.0000000
N2   N   0.777782061843900   0.555543519816735   0.625442244735454   1.0000000
N2   N   0.611105973509964   0.055553698520016   0.624961966518208   1.0000000
N2   N   0.944445841273677   0.055553478409786   0.624985150916348   1.0000000
N2   N   0.055958623123857   0.111440566013869   0.375000000000000   1.0000000
N2   N   0.555827540810351   0.610404430744311   0.375000000000000   1.0000000
N2   N   0.389197934099066   0.112747551763307   0.375000000000000   1.0000000
N2   N   0.888317961316923   0.610117427946059   0.375000000000000   1.0000000
N2   N   0.722124032836281   0.110793384880328   0.375000000000000   1.0000000
N2   N   0.055561768929723   0.777780011963624   0.875000000000000   1.0000000
N2   N   0.388891656191847   0.777781009530363   0.875000000000000   1.0000000
N2   N   0.222223945457686   0.277776686039366   0.875000000000000   1.0000000
N2   N   0.722219138024794   0.777776934084895   0.875000000000000   1.0000000
N2   N   0.555552058276128   0.277769600057139   0.875000000000000   1.0000000
N2   N   0.888887963162534   0.277776007370281   0.875000000000000   1.0000000
N2   N   0.222229764158237   0.777858173812383   0.375000000000000   1.0000000
N2   N   0.055906573990380   0.277890792802424   0.375000000000000   1.0000000
N2   N   0.390932195031649   0.282794371575288   0.375000000000000   1.0000000
N2   N   0.555277232193350   0.777318562665104   0.375000000000000   1.0000000
N2   N   0.888876533568437   0.778581074975153   0.375000000000000   1.0000000
N2   N   0.722341653825432   0.276494236334994   0.375000000000000   1.0000000
N2   N   0.055557751951579   0.944445970856042   0.875000000000000   1.0000000
N2   N   0.388893445502151   0.944443864523728   0.875000000000000   1.0000000
N2   N   0.222224330199166   0.444444817580127   0.875000000000000   1.0000000
N2   N   0.555553028105141   0.444440079219262   0.875000000000000   1.0000000
N2   N   0.722219542349578   0.944442080691833   0.875000000000000   1.0000000
N2   N   0.888891769954537   0.444442613491623   0.875000000000000   1.0000000
N2   N   0.056293310862423   0.444405080085453   0.375000000000000   1.0000000
N2   N   0.222450037101031   0.945022459784072   0.375000000000000   1.0000000
N2   N   0.555261541783924   0.944081871631161   0.375000000000000   1.0000000
N2   N   0.389438545861870   0.442004902914046   0.375000000000000   1.0000000
N2   N   0.889219006931327   0.945113695068387   0.375000000000000   1.0000000
N2   N   0.722403704821456   0.441530811172298   0.375000000000000   1.0000000
N2   N   0.222223705531502   0.611110703875948   0.875000000000000   1.0000000
N2   N   0.055554985618832   0.111108061280299   0.875000000000000   1.0000000
N2   N   0.555550889638199   0.611109559541370   0.875000000000000   1.0000000
N2   N   0.388890513680365   0.111104259668415   0.875000000000000   1.0000000
N2   N   0.888895811828356   0.611111167933853   0.875000000000000   1.0000000
N2   N   0.055816754981213   0.611002291295062   0.375000000000000   1.0000000
N2   N   0.722217749152330   0.111106342947874   0.875000000000000   1.0000000
N2   N   0.223684347608954   0.112875360595250   0.375000000000000   1.0000000
N2   N   0.389484183271985   0.610063083820942   0.375000000000000   1.0000000
N2   N   0.555347747926653   0.110559310309536   0.375000000000000   1.0000000
N2   N   0.388890840863349   0.611111494367579   0.875000000000000   1.0000000
N2   N   0.889112054667907   0.111274725274249   0.375000000000000   1.0000000
N2   N   0.222226514556375   0.777778302542602   0.875000000000000   1.0000000
N2   N   0.055555041713932   0.277775782620273   0.875000000000000   1.0000000
N2   N   0.388889683548548   0.277773809774404   0.875000000000000   1.0000000
N2   N   0.555552867958151   0.777777741420003   0.875000000000000   1.0000000
N2   N   0.888894104785348   0.777780723808119   0.875000000000000   1.0000000
N2   N   0.722219788759703   0.277773199637387   0.875000000000000   1.0000000
N2   N   0.055147031223185   0.777691932844959   0.375000000000000   1.0000000
N2   N   0.388880085239122   0.777453917794379   0.375000000000000   1.0000000
N2   N   0.222108556265427   0.277806220226119   0.375000000000000   1.0000000
N2   N   0.722195335333841   0.780054212439735   0.375000000000000   1.0000000
N2   N   0.555782976919847   0.276942243615781   0.375000000000000   1.0000000
N2   N   0.889241488794944   0.277567125230172   0.375000000000000   1.0000000
N2   N   0.055555990442854   0.444443274870197   0.875000000000000   1.0000000
N2   N   0.222226564734518   0.944443608974211   0.875000000000000   1.0000000
N2   N   0.555554129652206   0.944444311739758   0.875000000000000   1.0000000
N2   N   0.388890596993448   0.444446253291379   0.875000000000000   1.0000000
N2   N   0.888890233681148   0.944444180239546   0.875000000000000   1.0000000
N2   N   0.056273162130739   0.945326789058836   0.375000000000000   1.0000000
N2   N   0.722221497909079   0.444439444515118   0.875000000000000   1.0000000
N2   N   0.388820180493192   0.944787992770554   0.375000000000000   1.0000000
N2   N   0.223220402273566   0.444358355400840   0.375000000000000   1.0000000
N2   N   0.222732642142307   0.610975268088717   0.375000000000000   1.0000000
N2   N   0.722049248544586   0.945090447867986   0.375000000000000   1.0000000
N2   N   0.889490062904967   0.443920982387823   0.375000000000000   1.0000000
N2   N   0.055558917767719   0.611108526114582   0.875000000000000   1.0000000
N2   N   0.222223166755356   0.111108229901189   0.875000000000000   1.0000000
N2   N   0.722222021908433   0.611108684320748   0.875000000000000   1.0000000
N2   N   0.555553702156754   0.111104762097364   0.875000000000000   1.0000000
N2   N   0.888887149968343   0.111106888890126   0.875000000000000   1.0000000
B2   B   0.111893591532460   0.056332355672681   0.375000000000000   1.0000000
B2   B   0.444404692994457   0.056107803369474   0.375000000000000   1.0000000
B2   B   0.944342965567330   0.555340221179583   0.375000000000000   1.0000000
B2   B   0.777891032980395   0.055833644793647   0.375000000000000   1.0000000
B2   B   0.111095327903049   0.722216708298688   0.875000000000000   1.0000000
B2   B   0.444457387707814   0.722231735229190   0.875000000000000   1.0000000
B2   B   0.277789906515021   0.222218109586245   0.875000000000000   1.0000000
B2   B   0.777773759231127   0.722195908589358   0.875000000000000   1.0000000
B2   B   0.611117736973129   0.222232625289392   0.875000000000000   1.0000000
B2   B   0.944427239316923   0.222214687336976   0.875000000000000   1.0000000
B2   B   0.277769865802037   0.722212261030485   0.375000000000000   1.0000000
B2   B   0.110775426089682   0.222045875368398   0.375000000000000   1.0000000
B2   B   0.445924683617983   0.224178030137405   0.375000000000000   1.0000000
B2   B   0.612065646084996   0.723107175398023   0.375000000000000   1.0000000
B2   B   0.943210968059417   0.721544415790827   0.375000000000000   1.0000000
B2   B   0.778053895869743   0.221637759202385   0.375000000000000   1.0000000
B2   B   0.111097283122122   0.888871501584792   0.875000000000000   1.0000000
B2   B   0.444450547236230   0.888892843082739   0.875000000000000   1.0000000
B2   B   0.277791801893387   0.388896982608525   0.875000000000000   1.0000000
B2   B   0.611130181901250   0.388910181694531   0.875000000000000   1.0000000
B2   B   0.777772354574444   0.888866052123572   0.875000000000000   1.0000000
B2   B   0.944428609741587   0.388895473300656   0.875000000000000   1.0000000
B2   B   0.111618065406159   0.388882210746272   0.375000000000000   1.0000000
B2   B   0.277710389663009   0.889066929133024   0.375000000000000   1.0000000
B2   B   0.610976460439538   0.888762284014255   0.375000000000000   1.0000000
B2   B   0.944749784089255   0.889251233462496   0.375000000000000   1.0000000
B2   B   0.778333856084066   0.387405173046776   0.375000000000000   1.0000000
B2   B   0.277783850082445   0.555567601043947   0.875000000000000   1.0000000
B2   B   0.111098834165518   0.055534345581463   0.875000000000000   1.0000000
B2   B   0.611144582408656   0.555560604544742   0.875000000000000   1.0000000
B2   B   0.444453135936154   0.055554443871377   0.875000000000000   1.0000000
B2   B   0.944427150392712   0.555560996373845   0.875000000000000   1.0000000
B2   B   0.111408506563179   0.555581695162170   0.375000000000000   1.0000000
B2   B   0.777768648865669   0.055544727850625   0.875000000000000   1.0000000
B2   B   0.278195614117729   0.056204380347669   0.375000000000000   1.0000000
B2   B   0.445090703755699   0.554706888672065   0.375000000000000   1.0000000
B2   B   0.776053247433726   0.552363003294358   0.375000000000000   1.0000000
B2   B   0.610997667670788   0.055117393890437   0.375000000000000   1.0000000
B2   B   0.444476505327048   0.555570077745184   0.875000000000000   1.0000000
B2   B   0.944676598639432   0.055790230688661   0.375000000000000   1.0000000
B2   B   0.277776094485592   0.722228078568097   0.875000000000000   1.0000000
B2   B   0.111100704235434   0.222211139915058   0.875000000000000   1.0000000
B2   B   0.444465459036824   0.222226760437509   0.875000000000000   1.0000000
B2   B   0.611127150333343   0.722215718969361   0.875000000000000   1.0000000
B2   B   0.944426089196632   0.722207852544824   0.875000000000000   1.0000000
B2   B   0.777769467217153   0.222226100179209   0.875000000000000   1.0000000
B2   B   0.110835106141383   0.722192508728456   0.375000000000000   1.0000000
B2   B   0.444488951234615   0.721825292589665   0.375000000000000   1.0000000
B2   B   0.278363877975036   0.223789138210592   0.375000000000000   1.0000000
B2   B   0.776962480781781   0.723916028531604   0.375000000000000   1.0000000
B2   B   0.611397120409151   0.221346496549888   0.375000000000000   1.0000000
B2   B   0.944646098898993   0.222208521448532   0.375000000000000   1.0000000
B2   B   0.111100084630557   0.388890883537645   0.875000000000000   1.0000000
B2   B   0.277775906785243   0.888883634701284   0.875000000000000   1.0000000
B2   B   0.611115679796947   0.888885814792047   0.875000000000000   1.0000000
B2   B   0.444488425956393   0.388907679182500   0.875000000000000   1.0000000
B2   B   0.944427124236482   0.888858927283718   0.875000000000000   1.0000000
B2   B   0.111013263373275   0.888923124202602   0.375000000000000   1.0000000
B2   B   0.777772469740093   0.388905870751052   0.875000000000000   1.0000000
B2   B   0.444242086347693   0.888836487072425   0.375000000000000   1.0000000
B2   B   0.277336642981382   0.387888456559770   0.375000000000000   1.0000000
B2   B   0.278250095777570   0.555467258362050   0.375000000000000   1.0000000
B2   B   0.611850669360105   0.387790739131782   0.375000000000000   1.0000000
B2   B   0.778077283151104   0.890419892894914   0.375000000000000   1.0000000
B2   B   0.945000325577489   0.388732605539742   0.375000000000000   1.0000000
B2   B   0.111097864801623   0.555560353441663   0.875000000000000   1.0000000
B2   B   0.277780604494558   0.055543284389338   0.875000000000000   1.0000000
B2   B   0.777773360020593   0.555563499742078   0.875000000000000   1.0000000
B2   B   0.611112207888558   0.055556382379506   0.875000000000000   1.0000000
B2   B   0.944428102197868   0.055533156018206   0.875000000000000   1.0000000
B2   B   0.055509871266920   0.111058173063041   0.124990635515285   1.0000000
B2   B   0.555680239000628   0.611058663007453   0.124639745823106   1.0000000
B2   B   0.388898915562107   0.111125919633013   0.124999896367906   1.0000000
B2   B   0.888782656058007   0.611075713321027   0.125019218739964   1.0000000
B2   B   0.722236116320297   0.111123562912119   0.125000960530949   1.0000000
B2   B   0.055454736464967   0.777716160628723   0.624960056199263   1.0000000
B2   B   0.388878168284211   0.777768895123327   0.624999601809726   1.0000000
B2   B   0.222171617456236   0.277740132201067   0.625063183103811   1.0000000
B2   B   0.722289702752609   0.777705927481652   0.625075805485179   1.0000000
B2   B   0.555644451760931   0.277908015487906   0.625096553299078   1.0000000
B2   B   0.888878703379415   0.277794718040091   0.624997855475430   1.0000000
B2   B   0.222163575980850   0.777752485138853   0.125002825599798   1.0000000
B2   B   0.055514118116050   0.277763092104736   0.124986207036607   1.0000000
B2   B   0.388942571125131   0.277844033889019   0.124643282775599   1.0000000
B2   B   0.555605247875638   0.777749386573672   0.125015706064583   1.0000000
B2   B   0.888801272957395   0.777690258997872   0.124989615613119   1.0000000
B2   B   0.722251960290921   0.277845716844505   0.125012391557440   1.0000000
B2   B   0.055487771777239   0.944372450995424   0.624989099048165   1.0000000
B2   B   0.388874078022270   0.944438437664160   0.625001122329558   1.0000000
B2   B   0.222181664531889   0.444440761455802   0.625010084899321   1.0000000
B2   B   0.555645489837214   0.444543432787971   0.625306489449173   1.0000000
B2   B   0.722246959409213   0.944415225226148   0.624993127876562   1.0000000
B2   B   0.888861456767992   0.444474849745851   0.624987139977241   1.0000000
B2   B   0.055510854984525   0.444451839451424   0.125000154121961   1.0000000
B2   B   0.222167308922175   0.944398865634844   0.124997976435687   1.0000000
B2   B   0.555568469682277   0.944440616253318   0.125002171402829   1.0000000
B2   B   0.388933012014895   0.444414845502879   0.124602088331281   1.0000000
B2   B   0.888877457514055   0.944388001495305   0.124995854002668   1.0000000
B2   B   0.722245490089961   0.444544274670425   0.124901133944553   1.0000000
B2   B   0.222177798989446   0.611109127608928   0.624999894735213   1.0000000
B2   B   0.055509871266920   0.111058173063041   0.625009364484715   1.0000000
B2   B   0.555680239000628   0.611058663007453   0.625360254176893   1.0000000
B2   B   0.388898915562107   0.111125919633013   0.625000103632093   1.0000000
B2   B   0.888782656058007   0.611075713321027   0.624980781260036   1.0000000
B2   B   0.055478770824198   0.611093683553642   0.125017709695713   1.0000000
B2   B   0.722236116320297   0.111123562912119   0.624999039469050   1.0000000
B2   B   0.222180243401452   0.111060112662240   0.125001893515202   1.0000000
B2   B   0.388901617851598   0.611102110540670   0.125007987619786   1.0000000
B2   B   0.722195037779667   0.611073515160843   0.125152727383136   1.0000000
B2   B   0.555579019282727   0.111148963067805   0.125012133967340   1.0000000
B2   B   0.388901617851598   0.611102110540670   0.624992012380214   1.0000000
B2   B   0.888880090838959   0.111090912637594   0.124999554586233   1.0000000
B2   B   0.222163575980850   0.777752485138853   0.624997174400202   1.0000000
B2   B   0.055514118116050   0.277763092104736   0.625013792963393   1.0000000
B2   B   0.388942571125131   0.277844033889019   0.625356717224401   1.0000000
B2   B   0.555605247875638   0.777749386573672   0.624984293935418   1.0000000
B2   B   0.888801272957395   0.777690258997872   0.625010384386881   1.0000000
B2   B   0.722251960290921   0.277845716844505   0.624987608442560   1.0000000
B2   B   0.055454736464967   0.777716160628723   0.125039943800737   1.0000000
B2   B   0.388878168284211   0.777768895123327   0.125000398190274   1.0000000
B2   B   0.222171617456236   0.277740132201067   0.124936816896190   1.0000000
B2   B   0.722289702752609   0.777705927481652   0.124924194514820   1.0000000
B2   B   0.555644451760931   0.277908015487906   0.124903446700921   1.0000000
B2   B   0.888878703379415   0.277794718040091   0.125002144524569   1.0000000
B2   B   0.055510854984525   0.444451839451424   0.624999845878039   1.0000000
B2   B   0.222167308922175   0.944398865634844   0.625002023564313   1.0000000
B2   B   0.555568469682277   0.944440616253318   0.624997828597171   1.0000000
B2   B   0.388933012014895   0.444414845502879   0.625397911668719   1.0000000
B2   B   0.888877457514055   0.944388001495305   0.625004145997333   1.0000000
B2   B   0.055487771777239   0.944372450995424   0.125010900951836   1.0000000
B2   B   0.722245490089961   0.444544274670425   0.625098866055447   1.0000000
B2   B   0.388874078022270   0.944438437664160   0.124998877670442   1.0000000
B2   B   0.222181664531889   0.444440761455802   0.124989915100679   1.0000000
B2   B   0.222177798989446   0.611109127608928   0.125000105264788   1.0000000
B2   B   0.555645489837214   0.444543432787971   0.124693510550828   1.0000000
B2   B   0.722246959409213   0.944415225226148   0.125006872123436   1.0000000
B2   B   0.888861456767992   0.444474849745851   0.125012860022758   1.0000000
B2   B   0.055478770824198   0.611093683553642   0.624982290304288   1.0000000
B2   B   0.222180243401452   0.111060112662240   0.624998106484798   1.0000000
B2   B   0.722195037779667   0.611073515160843   0.624847272616864   1.0000000
B2   B   0.555579019282727   0.111148963067805   0.624987866032660   1.0000000
B2   B   0.888880090838959   0.111090912637594   0.625000445413768   1.0000000


