data_1
_audit_creation_method   'vasp2cif'
_cell_length_a    17.52789999999977
_cell_length_b    17.52789999999977
_cell_length_c    15.0
_cell_angle_alpha    90.0
_cell_angle_beta    90.0
_cell_angle_gamma    119.99999999999916

_symmetry_space_group_name_H-M    'P 1'
loop_
_atom_site_label
_atom_site_type_symbol
_atom_site_fract_x
_atom_site_fract_y
_atom_site_fract_z
_atom_site_occupancy
B2   B   0.906196351596941   0.953519610107523   0.111040180168307   1.0000000
B2   B   0.904691458180949   0.095310288511051   0.111071964628314   1.0000000
B2   B   0.904213150238213   0.237822096854489   0.111072877828003   1.0000000
B2   B   0.904680201138615   0.380800671215843   0.111008509418309   1.0000000
B2   B   0.906193419617695   0.524090601550799   0.111049181233526   1.0000000
B2   B   0.905734898651687   0.667188702063267   0.111092034230085   1.0000000
B2   B   0.905747163370377   0.809979636457095   0.111059525069716   1.0000000
B2   B   0.047824050000894   0.952177673364101   0.111033724951162   1.0000000
B2   B   0.046482105234477   0.093805368875066   0.111040179695306   1.0000000
B2   B   0.045679995801893   0.236691592531966   0.111007980987996   1.0000000
B2   B   0.045662849236731   0.380407353967209   0.111004413721954   1.0000000
B2   B   0.046460489933376   0.524101387398940   0.110994292472443   1.0000000
B2   B   0.047829763800237   0.667086521673466   0.111039610614018   1.0000000
B2   B   0.047969744499812   0.809705800310735   0.111018424081696   1.0000000
B2   B   0.190295949382264   0.952032018593198   0.111018422555699   1.0000000
B2   B   0.190022064578901   0.094254549337630   0.111059520945719   1.0000000
B2   B   0.186033926566060   0.233493121430220   0.111192608542931   1.0000000
B2   B   0.185855683642076   0.378632588360521   0.111268555749791   1.0000000
B2   B   0.186010169350675   0.523937545121526   0.111197797581481   1.0000000
B2   B   0.190016904118767   0.667182494411767   0.111064072528627   1.0000000
B2   B   0.190303878035327   0.809697816505671   0.111014568468124   1.0000000
B2   B   0.332915214031533   0.952171960033768   0.111039613028016   1.0000000
B2   B   0.332813011913732   0.094266841268315   0.111092029853085   1.0000000
B2   B   0.332743641086972   0.236895591867114   0.111114430951756   1.0000000
B2   B   0.323173738364866   0.372687254570029   0.110856156247723   1.0000000
B2   B   0.323168064810503   0.521933767196892   0.110867486818168   1.0000000
B2   B   0.332723621535453   0.667278081238548   0.111118427269491   1.0000000
B2   B   0.332819158908231   0.809984724724229   0.111064076061630   1.0000000
B2   B   0.475900300020060   0.953541090996621   0.110994297783444   1.0000000
B2   B   0.475911139955205   0.093808403058305   0.111049189926526   1.0000000
B2   B   0.476062411078725   0.233501304792178   0.111076526662621   1.0000000
B2   B   0.478067376242779   0.372682298819178   0.111028513807836   1.0000000
B2   B   0.478068017236105   0.676833792529499   0.110867487332174   1.0000000
B2   B   0.476064170668473   0.813991517717325   0.111197803318481   1.0000000
B2   B   0.619594385004800   0.954338835180270   0.111004415828955   1.0000000
B2   B   0.619200999132154   0.095321486143386   0.111008510504310   1.0000000
B2   B   0.619611578745957   0.236698516353621   0.111031814028133   1.0000000
B2   B   0.621357020592050   0.378644713616950   0.111068692570291   1.0000000
B2   B   0.627319270150820   0.521934290960222   0.111028508549834   1.0000000
B2   B   0.627314394884966   0.676827985351129   0.110856155960720   1.0000000
B2   B   0.621369154799478   0.814146085760924   0.111268551401788   1.0000000
B2   B   0.763310147996032   0.954321723725106   0.111007983213991   1.0000000
B2   B   0.762179598906512   0.095788526295784   0.111072880231001   1.0000000
B2   B   0.762189848332648   0.237811856847348   0.111074393967017   1.0000000
B2   B   0.763303306030378   0.380390176685044   0.111031805621133   1.0000000
B2   B   0.766500447383819   0.523939271728286   0.111076518698623   1.0000000
B2   B   0.763106066903885   0.667258039458025   0.111114439579756   1.0000000
B2   B   0.766508549993780   0.813967790115940   0.111192611016927   1.0000000
Sn2   Sn   0.476180252515830   0.523821403031167   0.110155323076052   1.0000000
N2   N   0.953059474829881   0.905145765741462   0.111031677711382   1.0000000
N2   N   0.952265479996135   0.047736237313863   0.111053884640627   1.0000000
N2   N   0.951214366697044   0.189923893648629   0.111049104943872   1.0000000
N2   N   0.951201709861862   0.332713613500912   0.111012793967685   1.0000000
N2   N   0.952255937151777   0.475946889357360   0.110982086807913   1.0000000
N2   N   0.953056739795135   0.619336812475133   0.111034680749160   1.0000000
N2   N   0.953209294015475   0.762316122053252   0.111035179793250   1.0000000
N2   N   0.095359143691642   0.904642608776359   0.111005734641052   1.0000000
N2   N   0.094855939696540   0.046942243985118   0.111031684208378   1.0000000
N2   N   0.091973989027976   0.187739368868561   0.110996025579971   1.0000000
N2   N   0.091636490452039   0.331539181706984   0.110990891056997   1.0000000
N2   N   0.091952319340678   0.475655025948388   0.110991727271121   1.0000000
N2   N   0.094847919089589   0.619337253237231   0.111032639983772   1.0000000
N2   N   0.095361045980161   0.762152738587139   0.111003281598592   1.0000000
N2   N   0.237848973573863   0.904640664777838   0.111003282490593   1.0000000
N2   N   0.237685607323752   0.046792474948523   0.111035172370252   1.0000000
N2   N   0.236893285280892   0.188822095874390   0.111064161096748   1.0000000
N2   N   0.229581711435011   0.326474622645605   0.111389289447097   1.0000000
N2   N   0.229568262213873   0.474523577775909   0.111400873345432   1.0000000
N2   N   0.236872285282718   0.619477782861847   0.111059456133546   1.0000000
N2   N   0.237683916677858   0.762317717517136   0.111034728138948   1.0000000
N2   N   0.380664417865768   0.905153706693411   0.111032644133775   1.0000000
N2   N   0.380664914711864   0.046945011124863   0.111034688497159   1.0000000
N2   N   0.380525470075181   0.188829455596524   0.111089087770277   1.0000000
N2   N   0.380264112791941   0.331966490099423   0.111034831034490   1.0000000
N2   N   0.353784546398607   0.462615885039327   0.109777193679010   1.0000000
N2   N   0.380259457079349   0.619742340879652   0.111027355039159   1.0000000
N2   N   0.380523955627150   0.763129421597282   0.111059460754546   1.0000000
N2   N   0.524346706279612   0.908049276175318   0.110991741049121   1.0000000
N2   N   0.524054768991638   0.047745724608224   0.110982087252919   1.0000000
N2   N   0.524357446861848   0.187739975055998   0.111040054624841   1.0000000
N2   N   0.525466862060707   0.326481820860658   0.111068011250804   1.0000000
N2   N   0.537386628312701   0.462614968312302   0.110806900009058   1.0000000
N2   N   0.537385774243672   0.646217135740394   0.109777195257011   1.0000000
N2   N   0.525478204837097   0.770433594114133   0.111400870529431   1.0000000
N2   N   0.668462608905012   0.908365257020961   0.110990888843997   1.0000000
N2   N   0.667288056230079   0.048799944387143   0.111012792499689   1.0000000
N2   N   0.667297301894967   0.189924746271648   0.111024881868962   1.0000000
N2   N   0.668469744333575   0.331532066215427   0.111022611772811   1.0000000
N2   N   0.673519843271335   0.474534853949289   0.111067990851804   1.0000000
N2   N   0.668035140544578   0.619737581753057   0.111034833669488   1.0000000
N2   N   0.673527043808394   0.770420046032988   0.111389282316098   1.0000000
N2   N   0.812262343647440   0.908027726006027   0.110996025955976   1.0000000
N2   N   0.810077831628374   0.048787342375953   0.111049114630871   1.0000000
N2   N   0.809526949950055   0.190474704741944   0.111085826390761   1.0000000
N2   N   0.810076991836350   0.332704383266035   0.111024875928967   1.0000000
N2   N   0.812261916499005   0.475644307588156   0.111040034113838   1.0000000
N2   N   0.811172265770479   0.619476233971821   0.111089103123280   1.0000000
N2   N   0.811179566219610   0.763108406503117   0.111064172392743   1.0000000


