data_1
_audit_creation_method   'vasp2cif'
_cell_length_a    14.93631414619966
_cell_length_b    14.936314146199727
_cell_length_c    13.341276283792837
_cell_angle_alpha    90.0
_cell_angle_beta    90.0
_cell_angle_gamma    119.99999999999984

_symmetry_space_group_name_H-M    'P 1'
loop_
_atom_site_label
_atom_site_type_symbol
_atom_site_fract_x
_atom_site_fract_y
_atom_site_fract_z
_atom_site_occupancy
S2   S   0.530895050012766   0.432114191673044   0.375000000000000   1.0000000
N2   N   0.111103198510079   0.055555685605779   0.124983016956062   1.0000000
N2   N   0.611106398430566   0.555583400741076   0.124434315877345   1.0000000
N2   N   0.444491009525982   0.055569948936063   0.124908441271004   1.0000000
N2   N   0.944440404772569   0.555550552765320   0.124914820300789   1.0000000
N2   N   0.777805265839974   0.055569299586655   0.124818749237501   1.0000000
N2   N   0.111128740414809   0.722231036874062   0.625127664886742   1.0000000
N2   N   0.444491009525982   0.722254393923254   0.625091558728996   1.0000000
N2   N   0.277731710371718   0.222199872651705   0.625082533858531   1.0000000
N2   N   0.777770688882022   0.722230893887165   0.625121761001100   1.0000000
N2   N   0.611138160897645   0.222204625025186   0.625212686232482   1.0000000
N2   N   0.944442449336643   0.222218696310635   0.625129802713712   1.0000000
N2   N   0.277818035680370   0.722240038533935   0.124902594315527   1.0000000
N2   N   0.111078726373781   0.222206029853555   0.124971475029814   1.0000000
N2   N   0.444477244896426   0.222220179571998   0.124825154532687   1.0000000
N2   N   0.611138160897645   0.722266869205788   0.124787313767511   1.0000000
N2   N   0.944440404772569   0.722223185340586   0.124914820300789   1.0000000
N2   N   0.777800494991591   0.222217762998208   0.124842398724957   1.0000000
N2   N   0.111127885259551   0.888903651572107   0.625092477161191   1.0000000
N2   N   0.444496325809111   0.888914829571220   0.625124137829309   1.0000000
N2   N   0.277731710371718   0.388865171053340   0.625082533858531   1.0000000
N2   N   0.611106398430566   0.388856331022827   0.625565684122655   1.0000000
N2   N   0.777800494991591   0.888916065326719   0.625157601275043   1.0000000
N2   N   0.944447786712259   0.388885140318497   0.625104067189350   1.0000000
N2   N   0.111103198510079   0.388880846237628   0.124983016956062   1.0000000
N2   N   0.277818035680370   0.888911330479764   0.124902594315527   1.0000000
N2   N   0.611156150918288   0.888926040645010   0.124830116181313   1.0000000
N2   N   0.444365280195860   0.388849306764598   0.123568249344871   1.0000000
N2   N   0.944447786712259   0.888895979727098   0.124895932810649   1.0000000
N2   N   0.777770688882022   0.388873128328178   0.124878238998899   1.0000000
N2   N   0.277804901163736   0.555565583221599   0.624995092034623   1.0000000
N2   N   0.111103198510079   0.055555685605779   0.625016983043945   1.0000000
N2   N   0.611106398430566   0.555583400741076   0.625565684122655   1.0000000
N2   N   0.444491009525982   0.055569948936063   0.625091558728996   1.0000000
N2   N   0.944440404772569   0.555550552765320   0.625085179699204   1.0000000
N2   N   0.111127885259551   0.555557567020773   0.124907522838808   1.0000000
N2   N   0.777805265839974   0.055569299586655   0.625181250762506   1.0000000
N2   N   0.277804901163736   0.055572651275467   0.125004907965384   1.0000000
N2   N   0.444477244896426   0.555590398657765   0.124825154532687   1.0000000
N2   N   0.777753091176796   0.555543212255066   0.124910383941355   1.0000000
N2   N   0.611156150918288   0.055563443606600   0.124830116181313   1.0000000
N2   N   0.444477244896426   0.555590398657765   0.625174845467306   1.0000000
N2   N   0.944442449336643   0.055557086359344   0.124870197286281   1.0000000
N2   N   0.277818035680370   0.722240038533935   0.625097405684473   1.0000000
N2   N   0.111078726373781   0.222206029853555   0.625028524970186   1.0000000
N2   N   0.444477244896426   0.222220179571998   0.625174845467306   1.0000000
N2   N   0.611138160897645   0.722266869205788   0.625212686232482   1.0000000
N2   N   0.944440404772569   0.722223185340586   0.625085179699204   1.0000000
N2   N   0.777800494991591   0.222217762998208   0.625157601275043   1.0000000
N2   N   0.111128740414809   0.722231036874062   0.124872335113258   1.0000000
N2   N   0.444491009525982   0.722254393923254   0.124908441271004   1.0000000
N2   N   0.277731710371718   0.222199872651705   0.124917466141469   1.0000000
N2   N   0.777770688882022   0.722230893887165   0.124878238998899   1.0000000
N2   N   0.611138160897645   0.222204625025186   0.124787313767511   1.0000000
N2   N   0.944442449336643   0.222218696310635   0.124870197286281   1.0000000
N2   N   0.111103198510079   0.388880846237628   0.625016983043945   1.0000000
N2   N   0.277818035680370   0.888911330479764   0.625097405684473   1.0000000
N2   N   0.611156150918288   0.888926040645010   0.625169883818687   1.0000000
N2   N   0.444365280195860   0.388849306764598   0.626431750655136   1.0000000
N2   N   0.944447786712259   0.888895979727098   0.625104067189350   1.0000000
N2   N   0.111127885259551   0.888903651572107   0.124907522838808   1.0000000
N2   N   0.777770688882022   0.388873128328178   0.625121761001100   1.0000000
N2   N   0.444496325809111   0.888914829571220   0.124875862170690   1.0000000
N2   N   0.277731710371718   0.388865171053340   0.124917466141469   1.0000000
N2   N   0.277804901163736   0.555565583221599   0.125004907965384   1.0000000
N2   N   0.611106398430566   0.388856331022827   0.124434315877345   1.0000000
N2   N   0.777800494991591   0.888916065326719   0.124842398724957   1.0000000
N2   N   0.944447786712259   0.388885140318497   0.124895932810649   1.0000000
N2   N   0.111127885259551   0.555557567020773   0.625092477161191   1.0000000
N2   N   0.277804901163736   0.055572651275467   0.624995092034623   1.0000000
N2   N   0.777753091176796   0.555543212255066   0.625089616058639   1.0000000
N2   N   0.611156150918288   0.055563443606600   0.625169883818687   1.0000000
N2   N   0.944442449336643   0.055557086359344   0.625129802713712   1.0000000
N2   N   0.054514272688258   0.110470171849708   0.375000000000000   1.0000000
N2   N   0.555102799449267   0.617065495912052   0.375000000000000   1.0000000
N2   N   0.386561778041752   0.105365732109305   0.375000000000000   1.0000000
N2   N   0.886958056591252   0.610145694962301   0.375000000000000   1.0000000
N2   N   0.721850500905621   0.110302623438645   0.375000000000000   1.0000000
N2   N   0.055649879228268   0.777824310290171   0.875000000000000   1.0000000
N2   N   0.388976525027950   0.777822017501753   0.875000000000000   1.0000000
N2   N   0.222324287419352   0.277828810376351   0.875000000000000   1.0000000
N2   N   0.722320690019405   0.777822167705964   0.875000000000000   1.0000000
N2   N   0.555650884942524   0.277828162744219   0.875000000000000   1.0000000
N2   N   0.888992255136392   0.277833393001659   0.875000000000000   1.0000000
N2   N   0.219835856798484   0.776584595065910   0.375000000000000   1.0000000
N2   N   0.054514272688258   0.277377434171886   0.375000000000000   1.0000000
N2   N   0.381682744267278   0.262900045235531   0.375000000000000   1.0000000
N2   N   0.554524676153889   0.780090779292729   0.375000000000000   1.0000000
N2   N   0.888247116994094   0.777963057774019   0.375000000000000   1.0000000
N2   N   0.722110246346196   0.276041238600168   0.375000000000000   1.0000000
N2   N   0.055652995959544   0.944490115465661   0.875000000000000   1.0000000
N2   N   0.388976525027950   0.944487840859526   0.875000000000000   1.0000000
N2   N   0.222318063933628   0.444495871959159   0.875000000000000   1.0000000
N2   N   0.555658431680476   0.444495882506899   0.875000000000000   1.0000000
N2   N   0.722317703498800   0.944490126397310   0.875000000000000   1.0000000
N2   N   0.888991095455617   0.444498225601734   0.875000000000000   1.0000000
N2   N   0.053693754871828   0.444146760826735   0.375000000000000   1.0000000
N2   N   0.219747152075049   0.941930438647151   0.375000000000000   1.0000000
N2   N   0.554471646601272   0.943902489967300   0.375000000000000   1.0000000
N2   N   0.381682744267278   0.452116032365082   0.375000000000000   1.0000000
N2   N   0.888415057524484   0.944616451270015   0.375000000000000   1.0000000
N2   N   0.722954277322593   0.442934334284742   0.375000000000000   1.0000000
N2   N   0.222311364865977   0.611157908777386   0.875000000000000   1.0000000
N2   N   0.055659224812809   0.111160458900234   0.875000000000000   1.0000000
N2   N   0.555650884942524   0.611156055531632   0.875000000000000   1.0000000
N2   N   0.388979310494054   0.111155387564120   0.875000000000000   1.0000000
N2   N   0.888992154264908   0.611162743799125   0.875000000000000   1.0000000
N2   N   0.053392981257071   0.610340016972901   0.375000000000000   1.0000000
N2   N   0.722317703498800   0.111160910434834   0.875000000000000   1.0000000
N2   N   0.218685945064206   0.107188606615108   0.375000000000000   1.0000000
N2   N   0.386561778041752   0.614529379265790   0.375000000000000   1.0000000
N2   N   0.722954277322593   0.613353276371188   0.375000000000000   1.0000000
N2   N   0.554524676153889   0.107767230194495   0.375000000000000   1.0000000
N2   N   0.388979310494054   0.611157256263278   0.875000000000000   1.0000000
N2   N   0.888442885912337   0.110888109622836   0.375000000000000   1.0000000
N2   N   0.222310279750230   0.777821806541783   0.875000000000000   1.0000000
N2   N   0.055659224812809   0.277832099245903   0.875000000000000   1.0000000
N2   N   0.388985916083505   0.277822516008938   0.875000000000000   1.0000000
N2   N   0.555644873580057   0.777820514375099   0.875000000000000   1.0000000
N2   N   0.888991095455617   0.777826203187211   0.875000000000000   1.0000000
N2   N   0.722320690019405   0.277831855646777   0.875000000000000   1.0000000
N2   N   0.053392981257071   0.776386297617506   0.375000000000000   1.0000000
N2   N   0.386835530497356   0.778134862390044   0.375000000000000   1.0000000
N2   N   0.220750706272256   0.277042019802797   0.375000000000000   1.0000000
N2   N   0.722110246346196   0.779402341079357   0.375000000000000   1.0000000
N2   N   0.555102799449267   0.271370636870550   0.375000000000000   1.0000000
N2   N   0.888415057524484   0.277131939587811   0.375000000000000   1.0000000
N2   N   0.055652995959544   0.444496213827204   0.875000000000000   1.0000000
N2   N   0.222311364865977   0.944486789421927   0.875000000000000   1.0000000
N2   N   0.555643657462205   0.944488495397766   0.875000000000000   1.0000000
N2   N   0.388985916083505   0.444496733407903   0.875000000000000   1.0000000
N2   N   0.888992255136392   0.944492195468067   0.875000000000000   1.0000000
N2   N   0.053693754871828   0.942880327378428   0.375000000000000   1.0000000
N2   N   0.722325053055172   0.444498958254194   0.875000000000000   1.0000000
N2   N   0.386835530497356   0.942034001440641   0.375000000000000   1.0000000
N2   N   0.218685945064206   0.444830671782441   0.375000000000000   1.0000000
N2   N   0.219747152075049   0.611150046761235   0.375000000000000   1.0000000
N2   N   0.721850500905621   0.944881210800310   0.375000000000000   1.0000000
N2   N   0.888247116994094   0.443617392553412   0.375000000000000   1.0000000
N2   N   0.055649879228268   0.611158902271433   0.875000000000000   1.0000000
N2   N   0.222318063933628   0.111155525307805   0.875000000000000   1.0000000
N2   N   0.722325053055172   0.611159428134314   0.875000000000000   1.0000000
N2   N   0.555644873580057   0.111157692538295   0.875000000000000   1.0000000
N2   N   0.888993131313840   0.111163232323591   0.875000000000000   1.0000000
B2   B   0.109227062593117   0.053914932520358   0.375000000000000   1.0000000
B2   B   0.612965321088812   0.565100082454656   0.375000000000000   1.0000000
B2   B   0.442963071219266   0.052392587186990   0.375000000000000   1.0000000
B2   B   0.942629003681443   0.554652626803700   0.375000000000000   1.0000000
B2   B   0.777676825028455   0.055505079180899   0.375000000000000   1.0000000
B2   B   0.111211858280898   0.722272595807116   0.875000000000000   1.0000000
B2   B   0.444515576370668   0.722216238216794   0.875000000000000   1.0000000
B2   B   0.277931172725959   0.222320746953958   0.875000000000000   1.0000000
B2   B   0.777845648558661   0.722231715755056   0.875000000000000   1.0000000
B2   B   0.611165291827447   0.222296468245862   0.875000000000000   1.0000000
B2   B   0.944588201391091   0.222295021834224   0.875000000000000   1.0000000
B2   B   0.275734847666987   0.721763517697748   0.375000000000000   1.0000000
B2   B   0.111064776011047   0.222199054672187   0.375000000000000   1.0000000
B2   B   0.441643336262730   0.217030631821212   0.375000000000000   1.0000000
B2   B   0.610653728932110   0.725897000667677   0.375000000000000   1.0000000
B2   B   0.942629003681443   0.721309710211078   0.375000000000000   1.0000000
B2   B   0.777652939658356   0.221187417679042   0.375000000000000   1.0000000
B2   B   0.111226628177564   0.888961284902472   0.875000000000000   1.0000000
B2   B   0.444518201014669   0.888925767174003   0.875000000000000   1.0000000
B2   B   0.277931172725959   0.388943759105330   0.875000000000000   1.0000000
B2   B   0.611146283859442   0.388941050523376   0.875000000000000   1.0000000
B2   B   0.777869771569958   0.888915132716215   0.875000000000000   1.0000000
B2   B   0.944560550480551   0.388949408207671   0.875000000000000   1.0000000
B2   B   0.109227062593117   0.388645463406088   0.375000000000000   1.0000000
B2   B   0.275734847666987   0.887304663302567   0.375000000000000   1.0000000
B2   B   0.610644608735082   0.889835488624997   0.375000000000000   1.0000000
B2   B   0.943479338287561   0.888671650365054   0.375000000000000   1.0000000
B2   B   0.777829120327943   0.387247215714552   0.375000000000000   1.0000000
B2   B   0.277891501328783   0.555573440831442   0.875000000000000   1.0000000
B2   B   0.111264361248986   0.055647742974412   0.875000000000000   1.0000000
B2   B   0.611146283859442   0.555538566669395   0.875000000000000   1.0000000
B2   B   0.444515576370668   0.055632671487216   0.875000000000000   1.0000000
B2   B   0.944536715045648   0.555603481211919   0.875000000000000   1.0000000
B2   B   0.109122252098778   0.555071131089690   0.375000000000000   1.0000000
B2   B   0.777881955986197   0.055607644659763   0.875000000000000   1.0000000
B2   B   0.275598075442253   0.053114207628586   0.375000000000000   1.0000000
B2   B   0.441643336262730   0.557946037774853   0.375000000000000   1.0000000
B2   B   0.775791586050755   0.554562459692045   0.375000000000000   1.0000000
B2   B   0.610644608735082   0.054142453443405   0.375000000000000   1.0000000
B2   B   0.444514913852756   0.555534636334518   0.875000000000000   1.0000000
B2   B   0.944211635293142   0.055647042421370   0.375000000000000   1.0000000
B2   B   0.277871285956261   0.722251780437018   0.875000000000000   1.0000000
B2   B   0.111288625243142   0.222310979288231   0.875000000000000   1.0000000
B2   B   0.444514913852756   0.222313610851581   0.875000000000000   1.0000000
B2   B   0.611165291827447   0.722202156914914   0.875000000000000   1.0000000
B2   B   0.944536715045648   0.722266567167073   0.875000000000000   1.0000000
B2   B   0.777869771569958   0.222287972187071   0.875000000000000   1.0000000
B2   B   0.109011645157707   0.721172489245514   0.375000000000000   1.0000000
B2   B   0.442963071219266   0.723903817365605   0.375000000000000   1.0000000
B2   B   0.276365766771038   0.220078574998831   0.375000000000000   1.0000000
B2   B   0.777829120327943   0.723915237946720   0.375000000000000   1.0000000
B2   B   0.610653728932110   0.218090061597754   0.375000000000000   1.0000000
B2   B   0.944211635293142   0.221897926205108   0.375000000000000   1.0000000
B2   B   0.111264361248986   0.388949951607903   0.875000000000000   1.0000000
B2   B   0.277871285956261   0.888952838852571   0.875000000000000   1.0000000
B2   B   0.611182136131858   0.888904901533782   0.875000000000000   1.0000000
B2   B   0.444525442453868   0.388929387893602   0.875000000000000   1.0000000
B2   B   0.944560550480551   0.888944475606207   0.875000000000000   1.0000000
B2   B   0.109122252098778   0.887384454342409   0.375000000000000   1.0000000
B2   B   0.777845648558661   0.388947266136926   0.875000000000000   1.0000000
B2   B   0.443118217478182   0.888225775405759   0.375000000000000   1.0000000
B2   B   0.276365766771038   0.389620525105535   0.375000000000000   1.0000000
B2   B   0.275598075442253   0.555817201147002   0.375000000000000   1.0000000
B2   B   0.612965321088812   0.381198571967492   0.375000000000000   1.0000000
B2   B   0.777652939658356   0.889798855312644   0.375000000000000   1.0000000
B2   B   0.943479338287561   0.388141021255829   0.375000000000000   1.0000000
B2   B   0.111226628177564   0.555598676608422   0.875000000000000   1.0000000
B2   B   0.277891501328783   0.055651393830677   0.875000000000000   1.0000000
B2   B   0.777834452580559   0.555583892956950   0.875000000000000   1.0000000
B2   B   0.611182136131858   0.055610567931412   0.875000000000000   1.0000000
B2   B   0.944588201391091   0.055626512890196   0.875000000000000   1.0000000
B2   B   0.055669365041824   0.111214017115053   0.125225217153161   1.0000000
B2   B   0.555418259921853   0.610949579334085   0.125091837454562   1.0000000
B2   B   0.388967424144362   0.111323077586512   0.125381961960574   1.0000000
B2   B   0.888783859630293   0.611058596481818   0.125051458417916   1.0000000
B2   B   0.722236646821434   0.111117576546775   0.124995506821203   1.0000000
B2   B   0.055586995845007   0.777830483304436   0.624972194825535   1.0000000
B2   B   0.388967251992383   0.777759888043997   0.624908586475355   1.0000000
B2   B   0.222397887502362   0.277865610417845   0.624418946242296   1.0000000
B2   B   0.722149822411020   0.777738394542093   0.624987002942540   1.0000000
B2   B   0.555418259921853   0.277802013921118   0.624908162545446   1.0000000
B2   B   0.888916364506011   0.277761277340381   0.624968839246985   1.0000000
B2   B   0.222306391213384   0.777819862273360   0.125044016513339   1.0000000
B2   B   0.055669365041824   0.277788681260107   0.125225217153161   1.0000000
B2   B   0.388939763077053   0.277982246791150   0.125882897833407   1.0000000
B2   B   0.555557517520987   0.777729442743274   0.125062227084375   1.0000000
B2   B   0.888837480923548   0.777777538543293   0.125035939586461   1.0000000
B2   B   0.722149822411020   0.277744761202255   0.125012997057453   1.0000000
B2   B   0.055634018558839   0.944566266088889   0.624872062660906   1.0000000
B2   B   0.388967251992383   0.944540697281715   0.624908586475355   1.0000000
B2   B   0.222376009306995   0.444363425903988   0.624523959406661   1.0000000
B2   B   0.555189851679246   0.444261592506284   0.624577300413193   1.0000000
B2   B   0.722236646821434   0.944452403607995   0.625004493178798   1.0000000
B2   B   0.888837480923548   0.444393275713600   0.624964060413547   1.0000000
B2   B   0.055634018558839   0.444401085803279   0.125127937339094   1.0000000
B2   B   0.222333312781346   0.944614524812598   0.125163976774032   1.0000000
B2   B   0.555594520032412   0.944463926682873   0.125014338273180   1.0000000
B2   B   0.388939763077053   0.444290849619239   0.125882897833407   1.0000000
B2   B   0.888916364506011   0.944488420498965   0.125031160753015   1.0000000
B2   B   0.721979406938907   0.444333056992268   0.124958432851244   1.0000000
B2   B   0.222333312781346   0.611052121302084   0.624836023225962   1.0000000
B2   B   0.055669365041824   0.111214017115053   0.624774782846839   1.0000000
B2   B   0.555418259921853   0.610949579334085   0.624908162545446   1.0000000
B2   B   0.388967424144362   0.111323077586512   0.624618038039426   1.0000000
B2   B   0.888783859630293   0.611058596481818   0.624948541582084   1.0000000
B2   B   0.055586995845007   0.611089845873908   0.125027805174465   1.0000000
B2   B   0.722236646821434   0.111117576546775   0.625004493178798   1.0000000
B2   B   0.222376009306995   0.111345916736342   0.125476040593346   1.0000000
B2   B   0.388967424144362   0.610977679891193   0.125381961960574   1.0000000
B2   B   0.721979406938907   0.610979683279973   0.124958432851244   1.0000000
B2   B   0.555557517520987   0.111161408111055   0.125062227084375   1.0000000
B2   B   0.388967424144362   0.610977679891193   0.624618038039426   1.0000000
B2   B   0.888945281252879   0.111139307293114   0.125027485164259   1.0000000
B2   B   0.222306391213384   0.777819862273360   0.624955983486661   1.0000000
B2   B   0.055669365041824   0.277788681260107   0.624774782846839   1.0000000
B2   B   0.388939763077053   0.277982246791150   0.624117102166593   1.0000000
B2   B   0.555557517520987   0.777729442743274   0.624937772915626   1.0000000
B2   B   0.888837480923548   0.777777538543293   0.624964060413547   1.0000000
B2   B   0.722149822411020   0.277744761202255   0.624987002942540   1.0000000
B2   B   0.055586995845007   0.777830483304436   0.125027805174465   1.0000000
B2   B   0.388967251992383   0.777759888043997   0.125091413524644   1.0000000
B2   B   0.222397887502362   0.277865610417845   0.125581053757704   1.0000000
B2   B   0.722149822411020   0.777738394542093   0.125012997057453   1.0000000
B2   B   0.555418259921853   0.277802013921118   0.125091837454562   1.0000000
B2   B   0.888916364506011   0.277761277340381   0.125031160753015   1.0000000
B2   B   0.055634018558839   0.444401085803279   0.624872062660906   1.0000000
B2   B   0.222333312781346   0.944614524812598   0.624836023225962   1.0000000
B2   B   0.555594520032412   0.944463926682873   0.624985661726820   1.0000000
B2   B   0.388939763077053   0.444290849619239   0.624117102166593   1.0000000
B2   B   0.888916364506011   0.944488420498965   0.624968839246985   1.0000000
B2   B   0.055634018558839   0.944566266088889   0.125127937339094   1.0000000
B2   B   0.721979406938907   0.444333056992268   0.625041567148756   1.0000000
B2   B   0.388967251992383   0.944540697281715   0.125091413524644   1.0000000
B2   B   0.222376009306995   0.444363425903988   0.125476040593346   1.0000000
B2   B   0.222333312781346   0.611052121302084   0.125163976774032   1.0000000
B2   B   0.555189851679246   0.444261592506284   0.125422699586814   1.0000000
B2   B   0.722236646821434   0.944452403607995   0.124995506821203   1.0000000
B2   B   0.888837480923548   0.444393275713600   0.125035939586461   1.0000000
B2   B   0.055586995845007   0.611089845873908   0.624972194825535   1.0000000
B2   B   0.222376009306995   0.111345916736342   0.624523959406661   1.0000000
B2   B   0.721979406938907   0.610979683279973   0.625041567148756   1.0000000
B2   B   0.555557517520987   0.111161408111055   0.624937772915626   1.0000000
B2   B   0.888945281252879   0.111139307293114   0.624972514835740   1.0000000


