data_1
_audit_creation_method   'vasp2cif'
_cell_length_a    17.52789999999977
_cell_length_b    17.52789999999977
_cell_length_c    15.0
_cell_angle_alpha    90.0
_cell_angle_beta    90.0
_cell_angle_gamma    119.99999999999916

_symmetry_space_group_name_H-M    'P 1'
loop_
_atom_site_label
_atom_site_type_symbol
_atom_site_fract_x
_atom_site_fract_y
_atom_site_fract_z
_atom_site_occupancy
C2   C   0.390300203539466   0.486690258539443   0.120882108873949   1.0000000
B2   B   0.906233042282569   0.951264355277930   0.110484395658867   1.0000000
B2   B   0.908388164389038   0.095152904938846   0.110886157372962   1.0000000
B2   B   0.909071739796267   0.238106887789683   0.110800380477283   1.0000000
B2   B   0.908773741709614   0.380832124791023   0.111061175062635   1.0000000
B2   B   0.906812750964628   0.523400400165213   0.111558833806056   1.0000000
B2   B   0.904209627963883   0.665404907052255   0.110415914433119   1.0000000
B2   B   0.903245925807827   0.806789209035908   0.110027929349548   1.0000000
B2   B   0.049384117974533   0.952797676230800   0.110947842785023   1.0000000
B2   B   0.051629900907299   0.096429432576101   0.111000734486388   1.0000000
B2   B   0.052719184653216   0.239366239349266   0.111381307158621   1.0000000
B2   B   0.051975511016821   0.381850876213341   0.110757275281884   1.0000000
B2   B   0.049643771677673   0.524529693816534   0.110604046249756   1.0000000
B2   B   0.048233167224364   0.667140300721708   0.110955922365605   1.0000000
B2   B   0.048090404482989   0.809679325699098   0.110860354646681   1.0000000
B2   B   0.192499173030001   0.953853140652636   0.110983106404674   1.0000000
B2   B   0.195510124828965   0.098474308126961   0.110215769204123   1.0000000
B2   B   0.197171602759700   0.241445410947564   0.110789055670937   1.0000000
B2   B   0.196673677072576   0.383719750733782   0.111651309093354   1.0000000
B2   B   0.192146916932460   0.525836337869167   0.109416719772049   1.0000000
B2   B   0.191114264130424   0.668436098494882   0.110074039128044   1.0000000
B2   B   0.191458992831350   0.810917180498198   0.110886106539522   1.0000000
B2   B   0.335366665047109   0.954018210990722   0.111230015962033   1.0000000
B2   B   0.336916451409914   0.097135463531797   0.110020175258248   1.0000000
B2   B   0.342946368861683   0.244335745312247   0.107343860503938   1.0000000
B2   B   0.343594081071812   0.384838116570037   0.115071925391801   1.0000000
B2   B   0.334716269679413   0.530675237848751   0.111252369537371   1.0000000
B2   B   0.333423304913638   0.670804687543060   0.109160923094710   1.0000000
B2   B   0.334523288367992   0.812000498224860   0.110259142095562   1.0000000
B2   B   0.478515162775865   0.953386585904108   0.110749004979865   1.0000000
B2   B   0.479363908783345   0.095475053401167   0.111477510862471   1.0000000
B2   B   0.480901468321034   0.238128020872804   0.108640708148692   1.0000000
B2   B   0.495594924279283   0.391508583163977   0.103109751440235   1.0000000
B2   B   0.474972356640000   0.669870476226326   0.113069474388782   1.0000000
B2   B   0.477702043327815   0.811547496385422   0.109172866680482   1.0000000
B2   B   0.621624676708251   0.952027813205723   0.110166774418340   1.0000000
B2   B   0.622397446130373   0.094539903557721   0.111213393185407   1.0000000
B2   B   0.623080644256080   0.236501879659601   0.111695230389157   1.0000000
B2   B   0.624575282234340   0.377829010543222   0.108397701270846   1.0000000
B2   B   0.608567694129991   0.505972683432888   0.103831779934652   1.0000000
B2   B   0.615511942380017   0.660821159728802   0.113273626071027   1.0000000
B2   B   0.620012355044840   0.808274482950408   0.110117008733944   1.0000000
B2   B   0.764078764260374   0.951183533647871   0.110280362860845   1.0000000
B2   B   0.765437223324383   0.094620601271191   0.110676402406559   1.0000000
B2   B   0.766028252847440   0.237347241108520   0.111244854799223   1.0000000
B2   B   0.766308908212452   0.379898835468150   0.111967037153852   1.0000000
B2   B   0.763294559329674   0.521594711482060   0.109892602893866   1.0000000
B2   B   0.755817073437533   0.659249979131343   0.107987838796476   1.0000000
B2   B   0.760838619570978   0.805994210606908   0.109333984925305   1.0000000
N2   N   0.953069578320816   0.903204852029370   0.110661217883889   1.0000000
N2   N   0.955598177161516   0.047334422391336   0.110902295717253   1.0000000
N2   N   0.956952189330798   0.190817175659894   0.111035440171653   1.0000000
N2   N   0.956694922608519   0.333500428087548   0.110691008166040   1.0000000
N2   N   0.954834683840449   0.476161746005932   0.111085783898306   1.0000000
N2   N   0.952942843967488   0.618721055085628   0.111196774291170   1.0000000
N2   N   0.952235719122522   0.760772229378653   0.110508123605209   1.0000000
N2   N   0.096805541031437   0.905268491069416   0.110996652471804   1.0000000
N2   N   0.099145756262879   0.049028231647118   0.110971596502571   1.0000000
N2   N   0.100860909464462   0.192328384908422   0.111158017483000   1.0000000
N2   N   0.100786411523491   0.334990409749855   0.111449115029984   1.0000000
N2   N   0.097488938130474   0.477207955295803   0.110214311843188   1.0000000
N2   N   0.096156169403131   0.619904709610752   0.110625341768145   1.0000000
N2   N   0.096018780132895   0.762520457413004   0.110858419775374   1.0000000
N2   N   0.239884067528841   0.906200417980557   0.111043736002399   1.0000000
N2   N   0.241506799996891   0.049470883880907   0.110582733191800   1.0000000
N2   N   0.245819467745896   0.194977629608320   0.109183360232267   1.0000000
N2   N   0.246577429130197   0.337269402923365   0.112764477582057   1.0000000
N2   N   0.240541060073904   0.479283938358283   0.109490489891052   1.0000000
N2   N   0.238790904577210   0.621277820000862   0.109160729778825   1.0000000
N2   N   0.239179772021720   0.763660710732556   0.110583267454868   1.0000000
N2   N   0.383046442161609   0.906714004827385   0.110927516456473   1.0000000
N2   N   0.383944877671499   0.049014196358147   0.111349225040787   1.0000000
N2   N   0.386099608759932   0.192537132023007   0.107909210506997   1.0000000
N2   N   0.395544762110730   0.342051515076509   0.106342355913474   1.0000000
N2   N   0.381013142880862   0.624211174102675   0.110233045486525   1.0000000
N2   N   0.382331243995326   0.765125935413234   0.109272923831425   1.0000000
N2   N   0.526255088694214   0.906051664128296   0.109843482005476   1.0000000
N2   N   0.526975046979849   0.048034003286830   0.111419202747523   1.0000000
N2   N   0.527920422865321   0.190119362996950   0.111288256042855   1.0000000
N2   N   0.530217579122287   0.332569309342691   0.106211122171275   1.0000000
N2   N   0.475008239436904   0.531609824278436   0.131299994679955   1.0000000
N2   N   0.519928381474697   0.620447729525932   0.121867917111799   1.0000000
N2   N   0.525013911147917   0.763870573520308   0.109265360606223   1.0000000
N2   N   0.668694366254032   0.903701895998308   0.110093305250004   1.0000000
N2   N   0.670014980802421   0.047079414899057   0.110633301913686   1.0000000
N2   N   0.670721560029445   0.189403250828574   0.111573395143212   1.0000000
N2   N   0.671638974416378   0.331179554427798   0.111797132986916   1.0000000
N2   N   0.668737188062230   0.472328053884700   0.107421879041520   1.0000000
N2   N   0.656962102152631   0.606688810778488   0.106756511446765   1.0000000
N2   N   0.664969633038255   0.757429957532583   0.110195959997475   1.0000000
N2   N   0.810341089963810   0.902302339783134   0.109899038127855   1.0000000
N2   N   0.812772076484340   0.046831013909271   0.110682123441258   1.0000000
N2   N   0.813658895655475   0.189959312332955   0.110679469562475   1.0000000
N2   N   0.813819856589088   0.332581564816200   0.111507259685071   1.0000000
N2   N   0.812022605500647   0.474996772910737   0.112046075228961   1.0000000
N2   N   0.808293242293075   0.616382634914716   0.109266768121047   1.0000000
N2   N   0.806419800671154   0.756582604105637   0.108926594915316   1.0000000


