data_1
_audit_creation_method   'vasp2cif'
_cell_length_a    14.93631414619966
_cell_length_b    14.936314146199727
_cell_length_c    13.341276283792837
_cell_angle_alpha    90.0
_cell_angle_beta    90.0
_cell_angle_gamma    119.99999999999984

_symmetry_space_group_name_H-M    'P 1'
loop_
_atom_site_label
_atom_site_type_symbol
_atom_site_fract_x
_atom_site_fract_y
_atom_site_fract_z
_atom_site_occupancy
Al2   Al   0.555555555555557   0.444444444444443   0.375000000000000   1.0000000
N2   N   0.111107480875180   0.055543748075618   0.125097657345705   1.0000000
N2   N   0.611111622864288   0.555556579061903   0.125491118532948   1.0000000
N2   N   0.444432984337430   0.055539016706960   0.125173650402786   1.0000000
N2   N   0.944460983293040   0.555567015662571   0.125173650402786   1.0000000
N2   N   0.777774123716197   0.055553728524767   0.125066833883598   1.0000000
N2   N   0.111119014626623   0.722226173979976   0.624890316374825   1.0000000
N2   N   0.444432984337430   0.722227300963806   0.624826349597215   1.0000000
N2   N   0.277768983384172   0.222206223494457   0.624827153890522   1.0000000
N2   N   0.777793776505543   0.722231016615827   0.624827153890522   1.0000000
N2   N   0.611103906776956   0.222206223494457   0.624827153890522   1.0000000
N2   N   0.944446271475233   0.222225876283802   0.624933166116402   1.0000000
N2   N   0.277773826020024   0.722226173979976   0.125109683625175   1.0000000
N2   N   0.111110214517642   0.222221773925485   0.125087264211725   1.0000000
N2   N   0.444440424584200   0.222214182501736   0.125303086690491   1.0000000
N2   N   0.611103906776956   0.722231016615827   0.125172846109478   1.0000000
N2   N   0.944460983293040   0.722227300963806   0.125173650402786   1.0000000
N2   N   0.777778226074515   0.222221773925485   0.125087264211725   1.0000000
N2   N   0.111116138351595   0.888883861648405   0.624883666943451   1.0000000
N2   N   0.444434389963481   0.888883861648405   0.624883666943451   1.0000000
N2   N   0.277768983384172   0.388896093223044   0.624827153890522   1.0000000
N2   N   0.611111622864288   0.388888377135713   0.624508881467053   1.0000000
N2   N   0.777778226074515   0.888889785482358   0.624912735788276   1.0000000
N2   N   0.944456251924382   0.388897066132890   0.624902342654295   1.0000000
N2   N   0.111107480875180   0.388897066132890   0.125097657345705   1.0000000
N2   N   0.277773826020024   0.888880985373377   0.125109683625175   1.0000000
N2   N   0.611102933867109   0.888892519124820   0.125097657345705   1.0000000
N2   N   0.444443420938097   0.388888377135713   0.125491118532948   1.0000000
N2   N   0.944456251924382   0.888892519124820   0.125097657345705   1.0000000
N2   N   0.777793776505543   0.388896093223044   0.125172846109478   1.0000000
N2   N   0.277772699036194   0.555567015662571   0.624826349597215   1.0000000
N2   N   0.111107480875180   0.055543748075618   0.624902342654295   1.0000000
N2   N   0.611111622864288   0.555556579061903   0.624508881467053   1.0000000
N2   N   0.444432984337430   0.055539016706960   0.624826349597215   1.0000000
N2   N   0.944460983293040   0.555567015662571   0.624826349597215   1.0000000
N2   N   0.111116138351595   0.555565610036519   0.125116333056549   1.0000000
N2   N   0.777774123716197   0.055553728524767   0.624933166116402   1.0000000
N2   N   0.277772699036194   0.055539016706960   0.125173650402786   1.0000000
N2   N   0.444440424584200   0.555559575415799   0.125303086690491   1.0000000
N2   N   0.777785817498264   0.555559575415799   0.125303086690491   1.0000000
N2   N   0.611102933867109   0.055543748075618   0.125097657345705   1.0000000
N2   N   0.444440424584200   0.555559575415799   0.624696913309509   1.0000000
N2   N   0.944446271475233   0.055553728524767   0.125066833883598   1.0000000
N2   N   0.277773826020024   0.722226173979976   0.624890316374825   1.0000000
N2   N   0.111110214517642   0.222221773925485   0.624912735788276   1.0000000
N2   N   0.444440424584200   0.222214182501736   0.624696913309509   1.0000000
N2   N   0.611103906776956   0.722231016615827   0.624827153890522   1.0000000
N2   N   0.944460983293040   0.722227300963806   0.624826349597215   1.0000000
N2   N   0.777778226074515   0.222221773925485   0.624912735788276   1.0000000
N2   N   0.111119014626623   0.722226173979976   0.125109683625175   1.0000000
N2   N   0.444432984337430   0.722227300963806   0.125173650402786   1.0000000
N2   N   0.277768983384172   0.222206223494457   0.125172846109478   1.0000000
N2   N   0.777793776505543   0.722231016615827   0.125172846109478   1.0000000
N2   N   0.611103906776956   0.222206223494457   0.125172846109478   1.0000000
N2   N   0.944446271475233   0.222225876283802   0.125066833883598   1.0000000
N2   N   0.111107480875180   0.388897066132890   0.624902342654295   1.0000000
N2   N   0.277773826020024   0.888880985373377   0.624890316374825   1.0000000
N2   N   0.611102933867109   0.888892519124820   0.624902342654295   1.0000000
N2   N   0.444443420938097   0.388888377135713   0.624508881467053   1.0000000
N2   N   0.944456251924382   0.888892519124820   0.624902342654295   1.0000000
N2   N   0.111116138351595   0.888883861648405   0.125116333056549   1.0000000
N2   N   0.777793776505543   0.388896093223044   0.624827153890522   1.0000000
N2   N   0.444434389963481   0.888883861648405   0.125116333056549   1.0000000
N2   N   0.277768983384172   0.388896093223044   0.125172846109478   1.0000000
N2   N   0.277772699036194   0.555567015662571   0.125173650402786   1.0000000
N2   N   0.611111622864288   0.388888377135713   0.125491118532948   1.0000000
N2   N   0.777778226074515   0.888889785482358   0.125087264211725   1.0000000
N2   N   0.944456251924382   0.388897066132890   0.125097657345705   1.0000000
N2   N   0.111116138351595   0.555565610036519   0.624883666943451   1.0000000
N2   N   0.277772699036194   0.055539016706960   0.624826349597215   1.0000000
N2   N   0.777785817498264   0.555559575415799   0.624696913309509   1.0000000
N2   N   0.611102933867109   0.055543748075618   0.624902342654295   1.0000000
N2   N   0.944446271475233   0.055553728524767   0.624933166116402   1.0000000
N2   N   0.054322720868967   0.110317952467165   0.375000000000000   1.0000000
N2   N   0.555836878392452   0.621129945546166   0.375000000000000   1.0000000
N2   N   0.387721013041332   0.108775359416007   0.375000000000000   1.0000000
N2   N   0.891224640583992   0.612278986958668   0.375000000000000   1.0000000
N2   N   0.722661898264862   0.110317952467165   0.375000000000000   1.0000000
N2   N   0.055549622405115   0.777777857369416   0.875000000000000   1.0000000
N2   N   0.388894901630965   0.777777857369416   0.875000000000000   1.0000000
N2   N   0.222220430895216   0.277776882114276   0.875000000000000   1.0000000
N2   N   0.722223117885724   0.777779569104783   0.875000000000000   1.0000000
N2   N   0.555558446175729   0.277782116231943   0.875000000000000   1.0000000
N2   N   0.888889486910450   0.277776582225921   0.875000000000000   1.0000000
N2   N   0.222222222222221   0.777777777777779   0.375000000000000   1.0000000
N2   N   0.054322720868967   0.277338101735138   0.375000000000000   1.0000000
N2   N   0.378870054453834   0.268040266179622   0.375000000000000   1.0000000
N2   N   0.555205838613590   0.781873102189965   0.375000000000000   1.0000000
N2   N   0.893333930243038   0.781873102189965   0.375000000000000   1.0000000
N2   N   0.724174211459427   0.275825788540574   0.375000000000000   1.0000000
N2   N   0.055553410269597   0.944446589730403   0.875000000000000   1.0000000
N2   N   0.388894901630965   0.944450377594885   0.875000000000000   1.0000000
N2   N   0.222220407454981   0.444439948603435   0.875000000000000   1.0000000
N2   N   0.555555555555557   0.444444444444443   0.875000000000000   1.0000000
N2   N   0.722223417774079   0.944446238017865   0.875000000000000   1.0000000
N2   N   0.888886207815119   0.444439948603435   0.875000000000000   1.0000000
N2   N   0.055750520404445   0.444834374142218   0.375000000000000   1.0000000
N2   N   0.221856142090107   0.943454852197846   0.375000000000000   1.0000000
N2   N   0.555165625857782   0.944249479595556   0.375000000000000   1.0000000
N2   N   0.378870054453834   0.444163121607548   0.375000000000000   1.0000000
N2   N   0.889682047532834   0.945677279131032   0.375000000000000   1.0000000
N2   N   0.731959733820378   0.444163121607548   0.375000000000000   1.0000000
N2   N   0.222222142630584   0.611105098369035   0.875000000000000   1.0000000
N2   N   0.055553761982135   0.111110513089551   0.875000000000000   1.0000000
N2   N   0.555558446175729   0.611109663277121   0.875000000000000   1.0000000
N2   N   0.388893500177797   0.111120333688937   0.875000000000000   1.0000000
N2   N   0.888879666311063   0.611106499822203   0.875000000000000   1.0000000
N2   N   0.056545147802155   0.611734623225597   0.375000000000000   1.0000000
N2   N   0.722223417774079   0.111110513089551   0.875000000000000   1.0000000
N2   N   0.218126897810036   0.106666069756962   0.375000000000000   1.0000000
N2   N   0.387721013041332   0.612278986958668   0.375000000000000   1.0000000
N2   N   0.731959733820378   0.621129945546166   0.375000000000000   1.0000000
N2   N   0.555205838613590   0.106666069756962   0.375000000000000   1.0000000
N2   N   0.388893500177797   0.611106499822203   0.875000000000000   1.0000000
N2   N   0.888888888888886   0.111111111111114   0.375000000000000   1.0000000
N2   N   0.222222222222221   0.777777777777779   0.875000000000000   1.0000000
N2   N   0.055553761982135   0.277776582225921   0.875000000000000   1.0000000
N2   N   0.388890336722879   0.277782116231943   0.875000000000000   1.0000000
N2   N   0.555560051396565   0.777779592545020   0.875000000000000   1.0000000
N2   N   0.888886207815119   0.777779592545020   0.875000000000000   1.0000000
N2   N   0.722223117885724   0.277776882114276   0.875000000000000   1.0000000
N2   N   0.056545147802155   0.778143857909893   0.375000000000000   1.0000000
N2   N   0.388265376774402   0.778143857909893   0.375000000000000   1.0000000
N2   N   0.218318243747812   0.275825788540574   0.375000000000000   1.0000000
N2   N   0.724174211459427   0.781681756252188   0.375000000000000   1.0000000
N2   N   0.555836878392452   0.268040266179622   0.375000000000000   1.0000000
N2   N   0.889682047532834   0.277338101735138   0.375000000000000   1.0000000
N2   N   0.055553410269597   0.444440153872523   0.875000000000000   1.0000000
N2   N   0.222222142630584   0.944450377594885   0.875000000000000   1.0000000
N2   N   0.555559846127477   0.944446589730403   0.875000000000000   1.0000000
N2   N   0.388890336722879   0.444441553824271   0.875000000000000   1.0000000
N2   N   0.888889486910450   0.944446238017865   0.875000000000000   1.0000000
N2   N   0.055750520404445   0.944249479595556   0.375000000000000   1.0000000
N2   N   0.722217883768057   0.444441553824271   0.875000000000000   1.0000000
N2   N   0.388265376774402   0.943454852197846   0.375000000000000   1.0000000
N2   N   0.218126897810036   0.444794161386410   0.375000000000000   1.0000000
N2   N   0.221856142090107   0.611734623225597   0.375000000000000   1.0000000
N2   N   0.722661898264862   0.945677279131032   0.375000000000000   1.0000000
N2   N   0.893333930243038   0.444794161386410   0.375000000000000   1.0000000
N2   N   0.055549622405115   0.611105098369035   0.875000000000000   1.0000000
N2   N   0.222220407454981   0.111113792184881   0.875000000000000   1.0000000
N2   N   0.722217883768057   0.611109663277121   0.875000000000000   1.0000000
N2   N   0.555560051396565   0.111113792184881   0.875000000000000   1.0000000
N2   N   0.888888888888886   0.111111111111114   0.875000000000000   1.0000000
B2   B   0.108519205081317   0.053664737504576   0.375000000000000   1.0000000
B2   B   0.626557501395955   0.586448336125239   0.375000000000000   1.0000000
B2   B   0.444022264076259   0.053456506347137   0.375000000000000   1.0000000
B2   B   0.946543493652863   0.555977735923741   0.375000000000000   1.0000000
B2   B   0.778435362769219   0.055884348051277   0.375000000000000   1.0000000
B2   B   0.111116350563207   0.722224841948268   0.875000000000000   1.0000000
B2   B   0.444447264220243   0.722246431311023   0.875000000000000   1.0000000
B2   B   0.277722809267829   0.222188100543838   0.875000000000000   1.0000000
B2   B   0.777811899456162   0.722277190732171   0.875000000000000   1.0000000
B2   B   0.611131957942680   0.222188100543838   0.875000000000000   1.0000000
B2   B   0.944437823631873   0.222208980597081   0.875000000000000   1.0000000
B2   B   0.277464039461068   0.722535960538932   0.375000000000000   1.0000000
B2   B   0.108094418194391   0.220713875763860   0.375000000000000   1.0000000
B2   B   0.442423176974713   0.218179687282761   0.375000000000000   1.0000000
B2   B   0.612800700021770   0.731007969021125   0.375000000000000   1.0000000
B2   B   0.946543493652863   0.723899091062458   0.375000000000000   1.0000000
B2   B   0.779286124236140   0.220713875763860   0.375000000000000   1.0000000
B2   B   0.111106690087014   0.888893309912987   0.875000000000000   1.0000000
B2   B   0.444453286492644   0.888893309912987   0.875000000000000   1.0000000
B2   B   0.277722809267829   0.388868042057320   0.875000000000000   1.0000000
B2   B   0.611135482777906   0.388864517222094   0.875000000000000   1.0000000
B2   B   0.777798449866281   0.888930233065890   0.875000000000000   1.0000000
B2   B   0.944454242909495   0.388871216096681   0.875000000000000   1.0000000
B2   B   0.108519205081317   0.388187800910069   0.375000000000000   1.0000000
B2   B   0.277464039461068   0.888261412255464   0.375000000000000   1.0000000
B2   B   0.611812199089930   0.891480794918683   0.375000000000000   1.0000000
B2   B   0.413551663874761   0.373442498604045   0.375000000000000   1.0000000
B2   B   0.946335262495424   0.891480794918683   0.375000000000000   1.0000000
B2   B   0.784873935666026   0.387199299978230   0.375000000000000   1.0000000
B2   B   0.277753568688977   0.555552735779757   0.875000000000000   1.0000000
B2   B   0.111083639853857   0.055545757090505   0.875000000000000   1.0000000
B2   B   0.611135482777906   0.555604298889140   0.875000000000000   1.0000000
B2   B   0.444447264220243   0.055534166242555   0.875000000000000   1.0000000
B2   B   0.944465833757445   0.555552735779757   0.875000000000000   1.0000000
B2   B   0.111225419383251   0.555784172099831   0.375000000000000   1.0000000
B2   B   0.777791019402919   0.055562176368127   0.875000000000000   1.0000000
B2   B   0.276100908937542   0.053456506347137   0.375000000000000   1.0000000
B2   B   0.442423176974713   0.557576823025287   0.375000000000000   1.0000000
B2   B   0.781820312717238   0.557576823025287   0.375000000000000   1.0000000
B2   B   0.611812199089930   0.053664737504576   0.375000000000000   1.0000000
B2   B   0.444425614993554   0.555574385006446   0.875000000000000   1.0000000
B2   B   0.944115651948722   0.055884348051277   0.375000000000000   1.0000000
B2   B   0.277775158051732   0.722224841948268   0.875000000000000   1.0000000
B2   B   0.111069766934110   0.222201550133719   0.875000000000000   1.0000000
B2   B   0.444425614993554   0.222184563320443   0.875000000000000   1.0000000
B2   B   0.611131957942680   0.722277190732171   0.875000000000000   1.0000000
B2   B   0.944465833757445   0.722246431311023   0.875000000000000   1.0000000
B2   B   0.777798449866281   0.222201550133719   0.875000000000000   1.0000000
B2   B   0.111738587744536   0.722535960538932   0.375000000000000   1.0000000
B2   B   0.444022264076259   0.723899091062458   0.375000000000000   1.0000000
B2   B   0.268992030978875   0.215126064333974   0.375000000000000   1.0000000
B2   B   0.784873935666026   0.731007969021125   0.375000000000000   1.0000000
B2   B   0.612800700021770   0.215126064333974   0.375000000000000   1.0000000
B2   B   0.944115651948722   0.221564637230781   0.375000000000000   1.0000000
B2   B   0.111083639853857   0.388871216096681   0.875000000000000   1.0000000
B2   B   0.277775158051732   0.888883649436793   0.875000000000000   1.0000000
B2   B   0.611128783903319   0.888916360146143   0.875000000000000   1.0000000
B2   B   0.444395701110860   0.388864517222094   0.875000000000000   1.0000000
B2   B   0.944454242909495   0.888916360146143   0.875000000000000   1.0000000
B2   B   0.111225419383251   0.888774580616749   0.375000000000000   1.0000000
B2   B   0.777811899456162   0.388868042057320   0.875000000000000   1.0000000
B2   B   0.444215827900169   0.888774580616749   0.375000000000000   1.0000000
B2   B   0.268992030978875   0.387199299978230   0.375000000000000   1.0000000
B2   B   0.276100908937542   0.555977735923741   0.375000000000000   1.0000000
B2   B   0.626557501395955   0.373442498604045   0.375000000000000   1.0000000
B2   B   0.779286124236140   0.891905581805609   0.375000000000000   1.0000000
B2   B   0.946335262495424   0.388187800910069   0.375000000000000   1.0000000
B2   B   0.111106690087014   0.555546713507356   0.875000000000000   1.0000000
B2   B   0.277753568688977   0.055534166242555   0.875000000000000   1.0000000
B2   B   0.777815436679557   0.555574385006446   0.875000000000000   1.0000000
B2   B   0.611128783903319   0.055545757090505   0.875000000000000   1.0000000
B2   B   0.944437823631873   0.055562176368127   0.875000000000000   1.0000000
B2   B   0.055511099868602   0.111077862005154   0.124901880353069   1.0000000
B2   B   0.555501538715638   0.611293810993633   0.124772612848151   1.0000000
B2   B   0.388791199516817   0.110915732366977   0.124885118702957   1.0000000
B2   B   0.889084267633024   0.611208800483183   0.124885118702957   1.0000000
B2   B   0.722233428803217   0.111077862005154   0.124901880353069   1.0000000
B2   B   0.055632954149047   0.777809797131976   0.625083557911464   1.0000000
B2   B   0.388843509649594   0.777809797131976   0.625083557911464   1.0000000
B2   B   0.222092342789674   0.277712838061505   0.625162651386961   1.0000000
B2   B   0.722287161938495   0.777907657210326   0.625162651386961   1.0000000
B2   B   0.555501538715638   0.277541061055339   0.625227387151849   1.0000000
B2   B   0.888922137994846   0.277766571196784   0.625098119646931   1.0000000
B2   B   0.222222222222221   0.777777777777779   0.124909855009344   1.0000000
B2   B   0.055511099868602   0.277766571196784   0.124901880353069   1.0000000
B2   B   0.388706189006366   0.277541061055339   0.124772612848151   1.0000000
B2   B   0.555528447655949   0.777876771809261   0.124876317958253   1.0000000
B2   B   0.889014990819976   0.777876771809261   0.124876317958253   1.0000000
B2   B   0.722287161938495   0.277712838061505   0.124837348613039   1.0000000
B2   B   0.055566656113627   0.944433343886373   0.625094926956074   1.0000000
B2   B   0.388843509649594   0.944367045850952   0.625083557911464   1.0000000
B2   B   0.222123228190739   0.444471552344051   0.625123682041747   1.0000000
B2   B   0.555555555555557   0.444444444444443   0.625802968213121   1.0000000
B2   B   0.722233428803217   0.944488900131399   0.625098119646931   1.0000000
B2   B   0.889014990819976   0.444471552344051   0.625123682041747   1.0000000
B2   B   0.055566656113627   0.444466645560582   0.124905073043926   1.0000000
B2   B   0.222190202868023   0.944367045850952   0.124916442088536   1.0000000
B2   B   0.555533354439418   0.944433343886373   0.124905073043926   1.0000000
B2   B   0.388706189006366   0.444498461284362   0.124772612848151   1.0000000
B2   B   0.888922137994846   0.944488900131399   0.124901880353069   1.0000000
B2   B   0.722458938944660   0.444498461284362   0.124772612848151   1.0000000
B2   B   0.222190202868023   0.611156490350406   0.625083557911464   1.0000000
B2   B   0.055511099868602   0.111077862005154   0.625098119646931   1.0000000
B2   B   0.555501538715638   0.611293810993633   0.625227387151849   1.0000000
B2   B   0.388791199516817   0.110915732366977   0.625114881297043   1.0000000
B2   B   0.889084267633024   0.611208800483183   0.625114881297043   1.0000000
B2   B   0.055632954149047   0.611156490350406   0.124916442088536   1.0000000
B2   B   0.722233428803217   0.111077862005154   0.625098119646931   1.0000000
B2   B   0.222123228190739   0.110985009180024   0.124876317958253   1.0000000
B2   B   0.388791199516817   0.611208800483183   0.124885118702957   1.0000000
B2   B   0.722458938944660   0.611293810993633   0.124772612848151   1.0000000
B2   B   0.555528447655949   0.110985009180024   0.124876317958253   1.0000000
B2   B   0.388791199516817   0.611208800483183   0.625114881297043   1.0000000
B2   B   0.888888888888886   0.111111111111114   0.124914528869605   1.0000000
B2   B   0.222222222222221   0.777777777777779   0.625090144990656   1.0000000
B2   B   0.055511099868602   0.277766571196784   0.625098119646931   1.0000000
B2   B   0.388706189006366   0.277541061055339   0.625227387151849   1.0000000
B2   B   0.555528447655949   0.777876771809261   0.625123682041747   1.0000000
B2   B   0.889014990819976   0.777876771809261   0.625123682041747   1.0000000
B2   B   0.722287161938495   0.277712838061505   0.625162651386961   1.0000000
B2   B   0.055632954149047   0.777809797131976   0.124916442088536   1.0000000
B2   B   0.388843509649594   0.777809797131976   0.124916442088536   1.0000000
B2   B   0.222092342789674   0.277712838061505   0.124837348613039   1.0000000
B2   B   0.722287161938495   0.777907657210326   0.124837348613039   1.0000000
B2   B   0.555501538715638   0.277541061055339   0.124772612848151   1.0000000
B2   B   0.888922137994846   0.277766571196784   0.124901880353069   1.0000000
B2   B   0.055566656113627   0.444466645560582   0.625094926956074   1.0000000
B2   B   0.222190202868023   0.944367045850952   0.625083557911464   1.0000000
B2   B   0.555533354439418   0.944433343886373   0.625094926956074   1.0000000
B2   B   0.388706189006366   0.444498461284362   0.625227387151849   1.0000000
B2   B   0.888922137994846   0.944488900131399   0.625098119646931   1.0000000
B2   B   0.055566656113627   0.944433343886373   0.124905073043926   1.0000000
B2   B   0.722458938944660   0.444498461284362   0.625227387151849   1.0000000
B2   B   0.388843509649594   0.944367045850952   0.124916442088536   1.0000000
B2   B   0.222123228190739   0.444471552344051   0.124876317958253   1.0000000
B2   B   0.222190202868023   0.611156490350406   0.124916442088536   1.0000000
B2   B   0.555555555555557   0.444444444444443   0.124197031786879   1.0000000
B2   B   0.722233428803217   0.944488900131399   0.124901880353069   1.0000000
B2   B   0.889014990819976   0.444471552344051   0.124876317958253   1.0000000
B2   B   0.055632954149047   0.611156490350406   0.625083557911464   1.0000000
B2   B   0.222123228190739   0.110985009180024   0.625123682041747   1.0000000
B2   B   0.722458938944660   0.611293810993633   0.625227387151849   1.0000000
B2   B   0.555528447655949   0.110985009180024   0.625123682041747   1.0000000
B2   B   0.888888888888886   0.111111111111114   0.625085471130394   1.0000000


