data_1
_audit_creation_method   'vasp2cif'
_cell_length_a    17.52789999999977
_cell_length_b    17.52789999999977
_cell_length_c    15.0
_cell_angle_alpha    90.0
_cell_angle_beta    90.0
_cell_angle_gamma    119.99999999999916

_symmetry_space_group_name_H-M    'P 1'
loop_
_atom_site_label
_atom_site_type_symbol
_atom_site_fract_x
_atom_site_fract_y
_atom_site_fract_z
_atom_site_occupancy
As2   As   0.503602291672404   0.496399110244932   0.110828940205977   1.0000000
B2   B   0.905898505347624   0.953505535063060   0.111092832238026   1.0000000
B2   B   0.904309747594522   0.095692273601099   0.111106398967782   1.0000000
B2   B   0.903772091008005   0.238435461932784   0.111199873330807   1.0000000
B2   B   0.903816891547284   0.381209270357834   0.111148756088612   1.0000000
B2   B   0.904912759067354   0.524027936791386   0.111073368999888   1.0000000
B2   B   0.906915525417436   0.667400911510106   0.111089687552833   1.0000000
B2   B   0.908053005839697   0.811707099481990   0.111111729713737   1.0000000
B2   B   0.048226302716706   0.951775718479273   0.111211932254771   1.0000000
B2   B   0.046496486133325   0.094103515848669   0.111092832238026   1.0000000
B2   B   0.046089420132358   0.237310738308437   0.111013149533789   1.0000000
B2   B   0.046715229756333   0.380392714359844   0.111041914279790   1.0000000
B2   B   0.048160331219208   0.523156909663330   0.111006574171041   1.0000000
B2   B   0.049130505478184   0.666037006281512   0.111102509451991   1.0000000
B2   B   0.049214239596665   0.809099512175873   0.111211103878650   1.0000000
B2   B   0.190902509020065   0.950787781599368   0.111211103878650   1.0000000
B2   B   0.188294921713748   0.091949015356292   0.111111729713737   1.0000000
B2   B   0.187046990146986   0.234689016700565   0.110913646468058   1.0000000
B2   B   0.188694356142158   0.378999841203440   0.110890267078397   1.0000000
B2   B   0.191613036220394   0.522121415786367   0.110893037227788   1.0000000
B2   B   0.192274971625383   0.665130882829362   0.110952744538888   1.0000000
B2   B   0.191854229055214   0.808147792140843   0.111093009617507   1.0000000
B2   B   0.333965014915722   0.950871515717722   0.111102509451991   1.0000000
B2   B   0.332601109686881   0.093086495778880   0.111089687552833   1.0000000
B2   B   0.327550905972223   0.231493628801097   0.110868699019871   1.0000000
B2   B   0.327471913030174   0.375317843080722   0.110845049593348   1.0000000
B2   B   0.335797629567722   0.519882612822577   0.110859147948885   1.0000000
B2   B   0.335965623857477   0.664036397339597   0.110852910552780   1.0000000
B2   B   0.334871138367879   0.807727049570453   0.110952744538888   1.0000000
B2   B   0.476845111533687   0.951841689976870   0.111006574171041   1.0000000
B2   B   0.475974084406011   0.095089262128571   0.111073368999888   1.0000000
B2   B   0.474502546080167   0.237966760594927   0.110982289740764   1.0000000
B2   B   0.464022978151267   0.373018929465180   0.110872102479213   1.0000000
B2   B   0.480119408374188   0.664204391629501   0.110859147948885   1.0000000
B2   B   0.477880605410757   0.808388984976366   0.110893037227788   1.0000000
B2   B   0.619609306836719   0.953286791439437   0.111041914279790   1.0000000
B2   B   0.618792750838552   0.096185129648353   0.111148756088613   1.0000000
B2   B   0.617975187219589   0.239615553499469   0.111227200834353   1.0000000
B2   B   0.616371257617674   0.383630763578340   0.111063328894513   1.0000000
B2   B   0.626983091731017   0.535979043045526   0.110872102479213   1.0000000
B2   B   0.624684178115303   0.672530108166781   0.110845049593349   1.0000000
B2   B   0.621002179992935   0.811307665053717   0.110890267078397   1.0000000
B2   B   0.762691282887579   0.953912601063794   0.111013149533789   1.0000000
B2   B   0.761566559263507   0.096229930188081   0.111199873330807   1.0000000
B2   B   0.760934432575639   0.239067588620679   0.111323731458911   1.0000000
B2   B   0.760386467696627   0.382026833976753   0.111227200834353   1.0000000
B2   B   0.762035260600606   0.525499475117056   0.110982289740764   1.0000000
B2   B   0.768508392395106   0.672451115224833   0.110868699019871   1.0000000
B2   B   0.765313004495698   0.812955031049163   0.110913646468058   1.0000000
N2   N   0.954065768619546   0.906117196815518   0.111157595690631   1.0000000
N2   N   0.951986822729710   0.048014579188258   0.111088126924879   1.0000000
N2   N   0.951086000911266   0.190536154263001   0.111102901372853   1.0000000
N2   N   0.951289913923983   0.333433701925062   0.111135279219084   1.0000000
N2   N   0.952513352105117   0.476269338043833   0.111039570182067   1.0000000
N2   N   0.954008722139479   0.619212104425241   0.111083825170080   1.0000000
N2   N   0.954638567838230   0.762704058294861   0.111157408313296   1.0000000
N2   N   0.096016467615910   0.903984934301845   0.111233700362997   1.0000000
N2   N   0.093884205102519   0.045935633298307   0.111157595690631   1.0000000
N2   N   0.092425519074279   0.188439938349194   0.110970942681508   1.0000000
N2   N   0.093260937081799   0.332153469659503   0.110959419540470   1.0000000
N2   N   0.095520470970750   0.475437715569275   0.110961839902295   1.0000000
N2   N   0.096639813438659   0.618307577849547   0.110997600501517   1.0000000
N2   N   0.096735270457556   0.761191416990211   0.111135711140269   1.0000000
N2   N   0.238809984928075   0.903266131460599   0.111135711140269   1.0000000
N2   N   0.237297343623270   0.045362834079843   0.111157408313296   1.0000000
N2   N   0.233258909687018   0.185426097129560   0.110910188194814   1.0000000
N2   N   0.232710240507827   0.328648603205627   0.110839697187734   1.0000000
N2   N   0.238319117158623   0.474055526875799   0.110850114684110   1.0000000
N2   N   0.239821730805185   0.617521649879292   0.110862896882916   1.0000000
N2   N   0.239502012431317   0.760499389486502   0.110975994860687   1.0000000
N2   N   0.381693824068397   0.903361588479363   0.110997600501517   1.0000000
N2   N   0.380789297492604   0.045992679778711   0.111083825170080   1.0000000
N2   N   0.378816213465177   0.187380215051119   0.110917954937082   1.0000000
N2   N   0.371004614272623   0.323476900275634   0.110797678587168   1.0000000
N2   N   0.377307384933481   0.467961749211763   0.110849223511076   1.0000000
N2   N   0.383510766614748   0.616490635303437   0.110835526844486   1.0000000
N2   N   0.382479752038744   0.760179671112960   0.110862896882916   1.0000000
N2   N   0.524563686348027   0.904480930947332   0.110961839902295   1.0000000
N2   N   0.523732063872987   0.047488049812367   0.111039570182067   1.0000000
N2   N   0.522778231053737   0.190479666693291   0.111087039409475   1.0000000
N2   N   0.520503244228030   0.333265676706031   0.110945104035451   1.0000000
N2   N   0.532039652705574   0.622694016984666   0.110849223511076   1.0000000
N2   N   0.525945875041184   0.761682284759122   0.110850114684110   1.0000000
N2   N   0.667847932257527   0.906740464836500   0.110959419540470   1.0000000
N2   N   0.666567699992226   0.048711487993977   0.111135279219084   1.0000000
N2   N   0.665808626417328   0.191611405369081   0.111258800068350   1.0000000
N2   N   0.664898379140325   0.335103022776512   0.111216955007112   1.0000000
N2   N   0.666735725211335   0.479498157689269   0.110945104035451   1.0000000
N2   N   0.676524501641457   0.628996787645622   0.110797678587168   1.0000000
N2   N   0.671352798711420   0.767291161409956   0.110839697187734   1.0000000
N2   N   0.811561463568659   0.907575882843701   0.110970942681508   1.0000000
N2   N   0.809465247654659   0.048915401007181   0.111102901372853   1.0000000
N2   N   0.808650510531780   0.191350891385799   0.111272339608266   1.0000000
N2   N   0.808389996549420   0.334192775499357   0.111258800068350   1.0000000
N2   N   0.809521735224631   0.477223170863065   0.111087039409475   1.0000000
N2   N   0.812621186866721   0.621185188452688   0.110917954937082   1.0000000
N2   N   0.814575304788297   0.766742492230826   0.110910188194814   1.0000000


