data_1
_audit_creation_method   'vasp2cif'
_cell_length_a    14.93631414619966
_cell_length_b    14.936314146199727
_cell_length_c    13.341276283792837
_cell_angle_alpha    90.0
_cell_angle_beta    90.0
_cell_angle_gamma    119.99999999999984

_symmetry_space_group_name_H-M    'P 1'
loop_
_atom_site_label
_atom_site_type_symbol
_atom_site_fract_x
_atom_site_fract_y
_atom_site_fract_z
_atom_site_occupancy
Al2   Al   0.444444444444443   0.388888888888886   0.375000000000000   1.0000000
N2   N   0.111092127740128   0.055539011008782   0.124108153343569   1.0000000
N2   N   0.611130902512347   0.555587620431651   0.123948872796143   1.0000000
N2   N   0.444446883268706   0.055539011008782   0.124108153343569   1.0000000
N2   N   0.944449771315565   0.555559320016772   0.124890443280083   1.0000000
N2   N   0.777777777777779   0.055555555555557   0.125141465341298   1.0000000
N2   N   0.111111111111114   0.722222222222221   0.624725340454815   1.0000000
N2   N   0.444446883268706   0.722241205592937   0.625891846656496   1.0000000
N2   N   0.277745712901802   0.222202430820866   0.626051127203935   1.0000000
N2   N   0.777794322324486   0.722241205592937   0.625891846656501   1.0000000
N2   N   0.611118833788988   0.222214499544492   0.626124147801401   1.0000000
N2   N   0.944435864318045   0.222220997259538   0.625207971594136   1.0000000
N2   N   0.277774013316599   0.722223784632367   0.124890443280083   1.0000000
N2   N   0.111095665755602   0.222214499544492   0.123875852198448   1.0000000
N2   N   0.444456717919068   0.222202430820866   0.123948872796143   1.0000000
N2   N   0.611118833788988   0.722237667577846   0.123875852198448   1.0000000
N2   N   0.944449771315565   0.722223784632367   0.124890443280083   1.0000000
N2   N   0.777785132941577   0.222220997259538   0.124792028405901   1.0000000
N2   N   0.111109548701081   0.888883562017763   0.625109556719900   1.0000000
N2   N   0.444446903124254   0.888890118228772   0.625116068067427   1.0000000
N2   N   0.277745712901802   0.388876615414261   0.626051127203935   1.0000000
N2   N   0.611130902512347   0.388876615414261   0.626051127203935   1.0000000
N2   N   0.777785132941577   0.888897469015284   0.625207971594136   1.0000000
N2   N   0.944443215104557   0.388886430209075   0.625116068067427   1.0000000
N2   N   0.111092127740128   0.388886450064622   0.124108153343569   1.0000000
N2   N   0.277774013316599   0.888883562017763   0.124890443280083   1.0000000
N2   N   0.611112336073801   0.888897469015284   0.124792028405901   1.0000000
N2   N   0.444444444444443   0.388888888888886   0.128197535185098   1.0000000
N2   N   0.944443215104557   0.888890118228772   0.124883931932639   1.0000000
N2   N   0.777794322324486   0.388886450064622   0.124108153343569   1.0000000
N2   N   0.277771815938473   0.555561517394878   0.626066116729782   1.0000000
N2   N   0.111092127740128   0.055539011008782   0.625891846656496   1.0000000
N2   N   0.611130902512347   0.555587620431651   0.626051127203935   1.0000000
N2   N   0.444446883268706   0.055539011008782   0.625891846656501   1.0000000
N2   N   0.944449771315565   0.555559320016772   0.625109556719900   1.0000000
N2   N   0.111109548701081   0.555559320016772   0.124890443280083   1.0000000
N2   N   0.777777777777779   0.055555555555557   0.624858534658701   1.0000000
N2   N   0.277771815938473   0.055543631876877   0.123933883270123   1.0000000
N2   N   0.444456717919068   0.555587620431651   0.123948872796143   1.0000000
N2   N   0.777789701456390   0.555561517394878   0.123933883270123   1.0000000
N2   N   0.611112336073801   0.055548200391815   0.124792028405901   1.0000000
N2   N   0.444456717919068   0.555587620431650   0.626051127203935   1.0000000
N2   N   0.944435864318045   0.055548200391815   0.124792028405901   1.0000000
N2   N   0.277774013316599   0.722223784632367   0.625109556719900   1.0000000
N2   N   0.111095665755602   0.222214499544492   0.626124147801401   1.0000000
N2   N   0.444456717919068   0.222202430820866   0.626051127203935   1.0000000
N2   N   0.611118833788988   0.722237667577846   0.626124147801401   1.0000000
N2   N   0.944449771315565   0.722223784632367   0.625109556719900   1.0000000
N2   N   0.777785132941577   0.222220997259538   0.625207971594136   1.0000000
N2   N   0.111111111111114   0.722222222222221   0.125274659545208   1.0000000
N2   N   0.444446883268706   0.722241205592937   0.124108153343569   1.0000000
N2   N   0.277745712901802   0.222202430820866   0.123948872796143   1.0000000
N2   N   0.777794322324486   0.722241205592937   0.124108153343569   1.0000000
N2   N   0.611118833788988   0.222214499544492   0.123875852198448   1.0000000
N2   N   0.944435864318045   0.222220997259538   0.124792028405901   1.0000000
N2   N   0.111092127740128   0.388886450064622   0.625891846656496   1.0000000
N2   N   0.277774013316599   0.888883562017763   0.625109556719900   1.0000000
N2   N   0.611112336073801   0.888897469015284   0.625207971594136   1.0000000
N2   N   0.444444444444443   0.388888888888886   0.621802464815007   1.0000000
N2   N   0.944443215104557   0.888890118228772   0.625116068067427   1.0000000
N2   N   0.111109548701081   0.888883562017763   0.124890443280083   1.0000000
N2   N   0.777794322324486   0.388886450064622   0.625891846656501   1.0000000
N2   N   0.444446903124254   0.888890118228772   0.124883931932639   1.0000000
N2   N   0.277745712901802   0.388876615414261   0.123948872796143   1.0000000
N2   N   0.277771815938473   0.555561517394878   0.123933883270123   1.0000000
N2   N   0.611130902512347   0.388876615414261   0.123948872796143   1.0000000
N2   N   0.777785132941577   0.888897469015284   0.124792028405901   1.0000000
N2   N   0.944443215104557   0.388886430209075   0.124883931932639   1.0000000
N2   N   0.111109548701081   0.555559320016772   0.625109556719900   1.0000000
N2   N   0.277771815938473   0.055543631876877   0.626066116729782   1.0000000
N2   N   0.777789701456390   0.555561517394878   0.626066116729782   1.0000000
N2   N   0.611112336073801   0.055548200391815   0.625207971594136   1.0000000
N2   N   0.944435864318045   0.055548200391815   0.625207971594136   1.0000000
N2   N   0.054568252641246   0.110440465115067   0.375000000000000   1.0000000
N2   N   0.556107765883271   0.612215531766558   0.375000000000000   1.0000000
N2   N   0.387881669049785   0.105524956566805   0.375000000000000   1.0000000
N2   N   0.890815683056918   0.612074508195223   0.375000000000000   1.0000000
N2   N   0.722394543641074   0.110938789692180   0.375000000000000   1.0000000
N2   N   0.055557109148628   0.777776224184685   0.875000000000000   1.0000000
N2   N   0.388889921071005   0.777778755967256   0.875000000000000   1.0000000
N2   N   0.222224904307226   0.277779118820313   0.875000000000000   1.0000000
N2   N   0.722224827741996   0.777775676417963   0.875000000000000   1.0000000
N2   N   0.555554214513113   0.277779118820313   0.875000000000000   1.0000000
N2   N   0.888889227272186   0.277778454544202   0.875000000000000   1.0000000
N2   N   0.221850810203468   0.777592071768477   0.375000000000000   1.0000000
N2   N   0.054568252641246   0.277461120859482   0.375000000000000   1.0000000
N2   N   0.379685569681658   0.259371139363399   0.375000000000000   1.0000000
N2   N   0.555872212473825   0.778765080692126   0.375000000000000   1.0000000
N2   N   0.890451703872032   0.779038957169960   0.375000000000000   1.0000000
N2   N   0.722892868218301   0.277461120859482   0.375000000000000   1.0000000
N2   N   0.055554577366245   0.944444498437356   0.875000000000000   1.0000000
N2   N   0.388889921071005   0.944444498437356   0.875000000000000   1.0000000
N2   N   0.222220657892545   0.444442448846662   0.875000000000000   1.0000000
N2   N   0.555536598715530   0.444434966024429   0.875000000000000   1.0000000
N2   N   0.722223434228028   0.944446868456166   0.875000000000000   1.0000000
N2   N   0.888888834895972   0.444443412262324   0.875000000000000   1.0000000
N2   N   0.054294376163263   0.444746080035235   0.375000000000000   1.0000000
N2   N   0.221258825138193   0.942517650276411   0.375000000000000   1.0000000
N2   N   0.555806665403444   0.944569999368453   0.375000000000000   1.0000000
N2   N   0.379685569681658   0.453647763651671   0.375000000000000   1.0000000
N2   N   0.888763333964876   0.944569999368453   0.375000000000000   1.0000000
N2   N   0.727808376766532   0.445451664283544   0.375000000000000   1.0000000
N2   N   0.222219910068329   0.611113423264997   0.875000000000000   1.0000000
N2   N   0.055557656915433   0.111108505591395   0.875000000000000   1.0000000
N2   N   0.555554214513113   0.611108429026046   0.875000000000000   1.0000000
N2   N   0.388890884486667   0.111111542379236   0.875000000000000   1.0000000
N2   N   0.888893513196629   0.611113423264997   0.875000000000000   1.0000000
N2   N   0.055741261564948   0.611482523129920   0.375000000000000   1.0000000
N2   N   0.722223434228028   0.111109899105304   0.875000000000000   1.0000000
N2   N   0.217643287517084   0.105524956566805   0.375000000000000   1.0000000
N2   N   0.387881669049785   0.615690045816210   0.375000000000000   1.0000000
N2   N   0.727808376766532   0.615690045816210   0.375000000000000   1.0000000
N2   N   0.555872212473825   0.110440465115067   0.375000000000000   1.0000000
N2   N   0.388890884486667   0.611112675440918   0.875000000000000   1.0000000
N2   N   0.888544246051062   0.110938789692180   0.375000000000000   1.0000000
N2   N   0.222219115036068   0.777776224184685   0.875000000000000   1.0000000
N2   N   0.055557656915433   0.277782484657409   0.875000000000000   1.0000000
N2   N   0.388898367308899   0.277796734617781   0.875000000000000   1.0000000
N2   N   0.555550848676094   0.777775676417963   0.875000000000000   1.0000000
N2   N   0.888888834895972   0.777778755967256   0.875000000000000   1.0000000
N2   N   0.722224827741996   0.277782484657409   0.875000000000000   1.0000000
N2   N   0.055741261564948   0.777592071768477   0.375000000000000   1.0000000
N2   N   0.388587253298093   0.779038957169960   0.375000000000000   1.0000000
N2   N   0.221117801566732   0.277225567450057   0.375000000000000   1.0000000
N2   N   0.722892868218301   0.778765080692125   0.375000000000000   1.0000000
N2   N   0.556107765883271   0.277225567450057   0.375000000000000   1.0000000
N2   N   0.888763333964876   0.277526667929972   0.375000000000000   1.0000000
N2   N   0.055554577366245   0.444443412262324   0.875000000000000   1.0000000
N2   N   0.222219910068329   0.944439820136699   0.875000000000000   1.0000000
N2   N   0.555554878789031   0.944444106061143   0.875000000000000   1.0000000
N2   N   0.388898367308899   0.444434966024429   0.875000000000000   1.0000000
N2   N   0.888889227272186   0.944444106061143   0.875000000000000   1.0000000
N2   N   0.054294376163263   0.942881629461297   0.375000000000000   1.0000000
N2   N   0.722221790954209   0.444442448846662   0.875000000000000   1.0000000
N2   N   0.388587253298093   0.942881629461297   0.375000000000000   1.0000000
N2   N   0.217643287517084   0.445451664283543   0.375000000000000   1.0000000
N2   N   0.221258825138193   0.612074508195223   0.375000000000000   1.0000000
N2   N   0.573962193970013   0.453647763651671   0.375000000000000   1.0000000
N2   N   0.722394543641074   0.944789087282267   0.375000000000000   1.0000000
N2   N   0.890451703872032   0.444746080035235   0.375000000000000   1.0000000
N2   N   0.055557109148628   0.611114218297207   0.875000000000000   1.0000000
N2   N   0.222220657892545   0.111111542379236   0.875000000000000   1.0000000
N2   N   0.722221790954209   0.611112675440918   0.875000000000000   1.0000000
N2   N   0.555550848676094   0.111108505591395   0.875000000000000   1.0000000
N2   N   0.888886464877162   0.111109899105304   0.875000000000000   1.0000000
B2   B   0.108142679467115   0.052814902883742   0.375000000000000   1.0000000
B2   B   0.618149209261939   0.561344754260378   0.375000000000000   1.0000000
B2   B   0.444672223416594   0.052814902883742   0.375000000000000   1.0000000
B2   B   0.945271520694213   0.555819242407109   0.375000000000000   1.0000000
B2   B   0.777777777777779   0.055555555555557   0.375000000000000   1.0000000
B2   B   0.111111111111114   0.722222222222221   0.875000000000000   1.0000000
B2   B   0.444445247006641   0.722232421847274   0.875000000000000   1.0000000
B2   B   0.277739929649092   0.222222892551964   0.875000000000000   1.0000000
B2   B   0.777787174840549   0.722232421847274   0.875000000000000   1.0000000
B2   B   0.611102739207189   0.222230594126304   0.875000000000000   1.0000000
B2   B   0.944421034746419   0.222234663453838   0.875000000000000   1.0000000
B2   B   0.277514090926317   0.722785611620463   0.375000000000000   1.0000000
B2   B   0.110190668085132   0.221762000709220   0.375000000000000   1.0000000
B2   B   0.443195544998783   0.215184124071585   0.375000000000000   1.0000000
B2   B   0.611571332624244   0.723142665248170   0.375000000000000   1.0000000
B2   B   0.945271520694213   0.722785611620463   0.375000000000000   1.0000000
B2   B   0.777933444666370   0.221828535521811   0.375000000000000   1.0000000
B2   B   0.111141249556374   0.888900047027094   0.875000000000000   1.0000000
B2   B   0.444477086614436   0.888905209973830   0.875000000000000   1.0000000
B2   B   0.277739929649092   0.388850370430439   0.875000000000000   1.0000000
B2   B   0.611110440781528   0.388850370430439   0.875000000000000   1.0000000
B2   B   0.777813628707547   0.888912298586909   0.875000000000000   1.0000000
B2   B   0.944428123359498   0.388856246718893   0.875000000000000   1.0000000
B2   B   0.108142679467115   0.388661109916734   0.375000000000000   1.0000000
B2   B   0.277514090926317   0.888061812639115   0.375000000000000   1.0000000
B2   B   0.611504797811384   0.889438242478047   0.375000000000000   1.0000000
B2   B   0.944272082468709   0.889061250864619   0.375000000000000   1.0000000
B2   B   0.780518430449619   0.388661109916734   0.375000000000000   1.0000000
B2   B   0.277755144706292   0.555578188626986   0.875000000000000   1.0000000
B2   B   0.111100911486044   0.055546158492632   0.875000000000000   1.0000000
B2   B   0.611110440781528   0.555593403684288   0.875000000000000   1.0000000
B2   B   0.444445247006641   0.055546158492632   0.875000000000000   1.0000000
B2   B   0.944433286306235   0.555574535862555   0.875000000000000   1.0000000
B2   B   0.110547721712853   0.555819242407109   0.375000000000000   1.0000000
B2   B   0.777777777777779   0.055555555555557   0.875000000000000   1.0000000
B2   B   0.276350561367305   0.052701122734696   0.375000000000000   1.0000000
B2   B   0.443195544998783   0.561344754260378   0.375000000000000   1.0000000
B2   B   0.780632210598726   0.556982771966055   0.375000000000000   1.0000000
B2   B   0.611504797811384   0.055399888667014   0.375000000000000   1.0000000
B2   B   0.444482962902890   0.555593403684288   0.875000000000000   1.0000000
B2   B   0.943895090855282   0.055399888667014   0.375000000000000   1.0000000
B2   B   0.277758797470880   0.722192083777043   0.875000000000000   1.0000000
B2   B   0.111127854919254   0.222230594126304   0.875000000000000   1.0000000
B2   B   0.444482962902890   0.222222892551964   0.875000000000000   1.0000000
B2   B   0.611102739207189   0.722205478414155   0.875000000000000   1.0000000
B2   B   0.944433286306235   0.722192083777043   0.875000000000000   1.0000000
B2   B   0.777813628707547   0.222234663453838   0.875000000000000   1.0000000
B2   B   0.111111111111114   0.722222222222221   0.375000000000000   1.0000000
B2   B   0.444672223416594   0.725190653866271   0.375000000000000   1.0000000
B2   B   0.271988579072873   0.215184124071585   0.375000000000000   1.0000000
B2   B   0.780518430449619   0.725190653866271   0.375000000000000   1.0000000
B2   B   0.611571332624244   0.221762000709220   0.375000000000000   1.0000000
B2   B   0.943895090855282   0.221828535521811   0.375000000000000   1.0000000
B2   B   0.111100911486044   0.388888086326688   0.875000000000000   1.0000000
B2   B   0.277758797470880   0.888900047027094   0.875000000000000   1.0000000
B2   B   0.611098669879387   0.888912298586909   0.875000000000000   1.0000000
B2   B   0.444444444444443   0.388888888888886   0.875000000000000   1.0000000
B2   B   0.944428123359498   0.888905209973830   0.875000000000000   1.0000000
B2   B   0.110547721712853   0.888061812639115   0.375000000000000   1.0000000
B2   B   0.777787174840549   0.388888086326688   0.875000000000000   1.0000000
B2   B   0.444789168395791   0.889061250864619   0.375000000000000   1.0000000
B2   B   0.271988579072873   0.390137788334546   0.375000000000000   1.0000000
B2   B   0.276350561367305   0.556982771966055   0.375000000000000   1.0000000
B2   B   0.618149209261939   0.390137788334546   0.375000000000000   1.0000000
B2   B   0.777933444666370   0.889438242478047   0.375000000000000   1.0000000
B2   B   0.944272082468709   0.388544164937538   0.375000000000000   1.0000000
B2   B   0.111141249556374   0.555574535862555   0.875000000000000   1.0000000
B2   B   0.277755144706292   0.055510289412714   0.875000000000000   1.0000000
B2   B   0.777823043920751   0.555578188626986   0.875000000000000   1.0000000
B2   B   0.611098669879387   0.055519704625975   0.875000000000000   1.0000000
B2   B   0.944421034746419   0.055519704625975   0.875000000000000   1.0000000
B2   B   0.055539889973432   0.111072014999087   0.124274473756726   1.0000000
B2   B   0.555595958267865   0.611191916535496   0.123912839425577   1.0000000
B2   B   0.388882896009116   0.111019868581294   0.123881415323028   1.0000000
B2   B   0.888906314180506   0.611119823756910   0.124572084088440   1.0000000
B2   B   0.722241809717250   0.111091523616164   0.124967561183856   1.0000000
B2   B   0.055571847144853   0.777761486188665   0.624902821854666   1.0000000
B2   B   0.388903829745275   0.777775611556326   0.625343048928782   1.0000000
B2   B   0.222141416797913   0.277737375065588   0.626087160574372   1.0000000
B2   B   0.722261318334125   0.777793443359829   0.625725526243277   1.0000000
B2   B   0.555595958267865   0.277737375065588   0.626087160574372   1.0000000
B2   B   0.888884947687219   0.277769895374658   0.625118655831640   1.0000000
B2   B   0.222189639043640   0.777761486188665   0.125097178145427   1.0000000
B2   B   0.055539889973432   0.277801208307625   0.124274473756726   1.0000000
B2   B   0.388763586303611   0.277527172607248   0.125209503521602   1.0000000
B2   B   0.555532125025770   0.777793443359829   0.124274473756726   1.0000000
B2   B   0.888871781811178   0.777775611556326   0.124656951071275   1.0000000
B2   B   0.722261318334125   0.277801208307625   0.124274473756726   1.0000000
B2   B   0.055557721776988   0.944461551522150   0.625343048928782   1.0000000
B2   B   0.388903829745275   0.944461551522150   0.625343048928782   1.0000000
B2   B   0.222136972572132   0.444450437324212   0.626118584677118   1.0000000
B2   B   0.555806160726107   0.444569747029718   0.624790496478413   1.0000000
B2   B   0.722241809717250   0.944483619434463   0.625032438816046   1.0000000
B2   B   0.888871781811178   0.444429503588053   0.625343048928782   1.0000000
B2   B   0.055557721776988   0.444429503588053   0.124656951071275   1.0000000
B2   B   0.222213509576355   0.944427019152822   0.124572084088440   1.0000000
B2   B   0.555563437958662   0.944448385646109   0.124881344168407   1.0000000
B2   B   0.388763586303611   0.444569747029718   0.125209503521602   1.0000000
B2   B   0.888884947687219   0.944448385646109   0.124881344168407   1.0000000
B2   B   0.722313464751911   0.444450437324212   0.123881415323028   1.0000000
B2   B   0.222213509576355   0.611119823756910   0.625427915911675   1.0000000
B2   B   0.055539889973432   0.111072014999087   0.625725526243277   1.0000000
B2   B   0.555595958267865   0.611191916535496   0.626087160574372   1.0000000
B2   B   0.388882896009116   0.111019868581294   0.626118584677118   1.0000000
B2   B   0.888906314180506   0.611119823756910   0.625427915911675   1.0000000
B2   B   0.055571847144853   0.611143694289770   0.125097178145427   1.0000000
B2   B   0.722241809717250   0.111091523616164   0.625032438816046   1.0000000
B2   B   0.222136972572132   0.111019868581294   0.123881415323028   1.0000000
B2   B   0.388882896009116   0.611196360761194   0.123881415323028   1.0000000
B2   B   0.722313464751911   0.611196360761194   0.123881415323028   1.0000000
B2   B   0.555532125025770   0.111072014999087   0.124274473756726   1.0000000
B2   B   0.388882896009116   0.611196360761194   0.626118584677118   1.0000000
B2   B   0.888849713898866   0.111091523616164   0.124967561183856   1.0000000
B2   B   0.222189639043640   0.777761486188665   0.624902821854666   1.0000000
B2   B   0.055539889973432   0.277801208307625   0.625725526243277   1.0000000
B2   B   0.388763586303611   0.277527172607248   0.624790496478413   1.0000000
B2   B   0.555532125025770   0.777793443359829   0.625725526243277   1.0000000
B2   B   0.888871781811178   0.777775611556326   0.625343048928782   1.0000000
B2   B   0.722261318334125   0.277801208307625   0.625725526243277   1.0000000
B2   B   0.055571847144853   0.777761486188665   0.125097178145427   1.0000000
B2   B   0.388903829745275   0.777775611556326   0.124656951071275   1.0000000
B2   B   0.222141416797913   0.277737375065588   0.123912839425577   1.0000000
B2   B   0.722261318334125   0.777793443359829   0.124274473756726   1.0000000
B2   B   0.555595958267865   0.277737375065588   0.123912839425577   1.0000000
B2   B   0.888884947687219   0.277769895374658   0.124881344168407   1.0000000
B2   B   0.055557721776988   0.444429503588053   0.625343048928782   1.0000000
B2   B   0.222213509576355   0.944427019152822   0.625427915911675   1.0000000
B2   B   0.555563437958662   0.944448385646109   0.625118655831640   1.0000000
B2   B   0.388763586303611   0.444569747029718   0.624790496478413   1.0000000
B2   B   0.888884947687219   0.944448385646109   0.625118655831640   1.0000000
B2   B   0.055557721776988   0.944461551522150   0.124656951071275   1.0000000
B2   B   0.722313464751911   0.444450437324212   0.626118584677118   1.0000000
B2   B   0.388903829745275   0.944461551522150   0.124656951071275   1.0000000
B2   B   0.222136972572132   0.444450437324212   0.123881415323028   1.0000000
B2   B   0.222213509576355   0.611119823756910   0.124572084088440   1.0000000
B2   B   0.555806160726107   0.444569747029718   0.125209503521602   1.0000000
B2   B   0.722241809717250   0.944483619434463   0.124967561183856   1.0000000
B2   B   0.888871781811178   0.444429503588053   0.124656951071275   1.0000000
B2   B   0.055571847144853   0.611143694289770   0.624902821854666   1.0000000
B2   B   0.222136972572132   0.111019868581294   0.626118584677118   1.0000000
B2   B   0.722313464751911   0.611196360761194   0.626118584677118   1.0000000
B2   B   0.555532125025770   0.111072014999087   0.625725526243277   1.0000000
B2   B   0.888849713898866   0.111091523616164   0.625032438816046   1.0000000


