data_1
_audit_creation_method   'vasp2cif'
_cell_length_a    17.52789999999977
_cell_length_b    17.52789999999977
_cell_length_c    15.0
_cell_angle_alpha    90.0
_cell_angle_beta    90.0
_cell_angle_gamma    119.99999999999916

_symmetry_space_group_name_H-M    'P 1'
loop_
_atom_site_label
_atom_site_type_symbol
_atom_site_fract_x
_atom_site_fract_y
_atom_site_fract_z
_atom_site_occupancy
B2   B   0.904783377675063   0.952370643861156   0.111014232223289   1.0000000
B2   B   0.904589874635394   0.095165946740810   0.111039057426940   1.0000000
B2   B   0.904574950062153   0.237923214455938   0.111032354311396   1.0000000
B2   B   0.904625224496082   0.380875915913897   0.111010093529071   1.0000000
B2   B   0.904755216728383   0.523829930981857   0.111008233145235   1.0000000
B2   B   0.905175173179131   0.666857130354283   0.111044678498060   1.0000000
B2   B   0.905025828867752   0.809639680277991   0.111036684174681   1.0000000
B2   B   0.047551376128041   0.952224483182210   0.111015171818767   1.0000000
B2   B   0.047019944947128   0.094608464794081   0.111015811504915   1.0000000
B2   B   0.047063804489692   0.237671200897573   0.111003651660788   1.0000000
B2   B   0.047263984537011   0.380871425690495   0.111023967097156   1.0000000
B2   B   0.047085278549922   0.523865475959071   0.111018519111458   1.0000000
B2   B   0.047564664794978   0.666771478373152   0.111022004234197   1.0000000
B2   B   0.047693062090921   0.809571125414997   0.111009372241098   1.0000000
B2   B   0.190359539928197   0.952191777093335   0.111007699143171   1.0000000
B2   B   0.190158807876641   0.094650025470273   0.111040597156977   1.0000000
B2   B   0.188766938400341   0.236416238864617   0.111007689966867   1.0000000
B2   B   0.189752254270323   0.380423822942851   0.111013769423826   1.0000000
B2   B   0.189248295105974   0.524093638603826   0.111034778853519   1.0000000
B2   B   0.190098653813838   0.666962635169674   0.111040071263699   1.0000000
B2   B   0.190362711098600   0.809626522615586   0.111004975694868   1.0000000
B2   B   0.333267909593896   0.952364895546481   0.111021521319923   1.0000000
B2   B   0.333205696182820   0.094614656157478   0.111060350553297   1.0000000
B2   B   0.332727437682109   0.236339205349349   0.111021637981093   1.0000000
B2   B   0.330209175072976   0.376130314815442   0.111036150916847   1.0000000
B2   B   0.331033346881604   0.525899038155679   0.111050650698665   1.0000000
B2   B   0.332888073928432   0.667942020576691   0.111045359318825   1.0000000
B2   B   0.333188529270829   0.810050331260772   0.111043506853094   1.0000000
B2   B   0.476194688685927   0.952507576606158   0.111018371614483   1.0000000
B2   B   0.476215610998570   0.095174592242907   0.111007107783656   1.0000000
B2   B   0.476193323385585   0.237573236062376   0.111030118727156   1.0000000
B2   B   0.474555494319145   0.377397252703655   0.111045728672828   1.0000000
B2   B   0.479429018363297   0.527800109367146   0.111117162626664   1.0000000
B2   B   0.476005004874327   0.667249117106538   0.111028197985059   1.0000000
B2   B   0.476113008323074   0.809824991729819   0.111045379460687   1.0000000
B2   B   0.619101105287000   0.952502950196012   0.111021062007018   1.0000000
B2   B   0.619094559318770   0.095232135751163   0.111007815834472   1.0000000
B2   B   0.619395399760118   0.237973376425010   0.111023369545932   1.0000000
B2   B   0.619504209082919   0.380404058871120   0.111022525591691   1.0000000
B2   B   0.623914411394138   0.525856996837049   0.111049900408145   1.0000000
B2   B   0.621103611709556   0.668689451549258   0.111006247197706   1.0000000
B2   B   0.619504079861773   0.810079517053716   0.111012248584239   1.0000000
B2   B   0.762038670847323   0.952608651378544   0.111001949308474   1.0000000
B2   B   0.761936435680009   0.095253609500145   0.111035813756737   1.0000000
B2   B   0.761959017466556   0.237923685972392   0.111041102574276   1.0000000
B2   B   0.761953503432614   0.380624069505320   0.111019997815126   1.0000000
B2   B   0.762832788872317   0.524064678386246   0.111022310382727   1.0000000
B2   B   0.763029168539507   0.667239730173561   0.111026768574159   1.0000000
B2   B   0.762591502346167   0.810292408316633   0.111006218909760   1.0000000
C2   C   0.381218762268921   0.475613086718258   0.111121945998403   1.0000000
N2   N   0.952345358604412   0.904672961181560   0.111008879286164   1.0000000
N2   N   0.952044776900489   0.047332502383458   0.111008192859362   1.0000000
N2   N   0.952121721387313   0.190318407328324   0.111013258715565   1.0000000
N2   N   0.952176944901627   0.333229469647973   0.111006506681928   1.0000000
N2   N   0.952021327275337   0.476136144949088   0.110987805749064   1.0000000
N2   N   0.952314220379054   0.619050273443564   0.111009088352630   1.0000000
N2   N   0.952425711349540   0.761900366927981   0.111019027513270   1.0000000
N2   N   0.095201738403405   0.904690485789479   0.110989396410691   1.0000000
N2   N   0.095051769577468   0.047338915572439   0.111006806406980   1.0000000
N2   N   0.094196367189819   0.189555045095159   0.110989520933044   1.0000000
N2   N   0.094928377634452   0.333103327418333   0.110997694471294   1.0000000
N2   N   0.094417163450716   0.476181321723743   0.111008464789541   1.0000000
N2   N   0.094971002354037   0.619124672434209   0.111012763266101   1.0000000
N2   N   0.095177561107278   0.761956244452675   0.110994265986051   1.0000000
N2   N   0.238077268838129   0.904798579886203   0.110994896285734   1.0000000
N2   N   0.238079998888488   0.047418284832743   0.111019081331143   1.0000000
N2   N   0.237818681092684   0.189911266657941   0.111012353295881   1.0000000
N2   N   0.236190212666861   0.331097590944147   0.110990476691997   1.0000000
N2   N   0.236647965240277   0.476519116363093   0.111009795117985   1.0000000
N2   N   0.237708739372337   0.619435044342930   0.111030946811182   1.0000000
N2   N   0.237990813004421   0.762142225311587   0.111014139036971   1.0000000
N2   N   0.380988103298593   0.905048392140564   0.111013787953992   1.0000000
N2   N   0.381036519823696   0.047545930423395   0.111010186541879   1.0000000
N2   N   0.381103354251608   0.189955005219240   0.111024561044005   1.0000000
N2   N   0.380948484459569   0.332110192744192   0.110983733037880   1.0000000
N2   N   0.380581034492913   0.620563584734043   0.111015331135443   1.0000000
N2   N   0.380953053204615   0.762724778905263   0.111031657727474   1.0000000
N2   N   0.523836313562880   0.904846918546662   0.111013835333151   1.0000000
N2   N   0.523852379424191   0.047706826115420   0.110986462444254   1.0000000
N2   N   0.523970276566982   0.190652163779617   0.111009434113078   1.0000000
N2   N   0.524265521568683   0.334036798232873   0.110992684932340   1.0000000
N2   N   0.526198213511076   0.620277252236461   0.110983766761466   1.0000000
N2   N   0.523892214416708   0.761884815475542   0.111015538572949   1.0000000
N2   N   0.666771890800050   0.904876018061531   0.110995132054751   1.0000000
N2   N   0.666657146743513   0.047619569865077   0.111007335699750   1.0000000
N2   N   0.666766998360765   0.190443973336741   0.111013561396939   1.0000000
N2   N   0.666721827473207   0.333203497518403   0.111000942575819   1.0000000
N2   N   0.666912468702669   0.476088861263719   0.110985984896906   1.0000000
N2   N   0.667059123365320   0.619105400714363   0.110980093074875   1.0000000
N2   N   0.667518413855253   0.762744217201721   0.110988005566935   1.0000000
N2   N   0.809671899357214   0.904988410010047   0.110987656962350   1.0000000
N2   N   0.809451417001380   0.047604399666398   0.111014132813540   1.0000000
N2   N   0.809449748160606   0.190386945774477   0.111017721073595   1.0000000
N2   N   0.809398801013262   0.333167136762011   0.111013543737348   1.0000000
N2   N   0.809500032995788   0.476111550006138   0.111007167560466   1.0000000
N2   N   0.809728632989221   0.619076339218993   0.111016838031153   1.0000000
N2   N   0.809695842872393   0.761977993679838   0.111010358123016   1.0000000
O2   O   0.527323929296879   0.477588126001078   0.111283253360938   1.0000000


