data_1
_audit_creation_method   'vasp2cif'
_cell_length_a    14.93631414619966
_cell_length_b    14.936314146199727
_cell_length_c    13.341276283792837
_cell_angle_alpha    90.0
_cell_angle_beta    90.0
_cell_angle_gamma    119.99999999999984

_symmetry_space_group_name_H-M    'P 1'
loop_
_atom_site_label
_atom_site_type_symbol
_atom_site_fract_x
_atom_site_fract_y
_atom_site_fract_z
_atom_site_occupancy
Pb2   Pb   0.502835685407762   0.418084509370543   0.375000000000000   1.0000000
N2   N   0.110930332727613   0.055464788371536   0.125125986354720   1.0000000
N2   N   0.611115114337769   0.555735018630484   0.119572213726957   1.0000000
N2   N   0.444333806352500   0.055502648720706   0.125168453296790   1.0000000
N2   N   0.944283642003241   0.555466293818821   0.124889078320498   1.0000000
N2   N   0.777667338095893   0.055500335714532   0.125637755370892   1.0000000
N2   N   0.110962869323399   0.722148101328354   0.624502965166733   1.0000000
N2   N   0.444333806352500   0.722164490965104   0.624831546703233   1.0000000
N2   N   0.277515560616241   0.222081871058161   0.626982274813935   1.0000000
N2   N   0.777655756533579   0.722213368229281   0.626152473383304   1.0000000
N2   N   0.611015542321960   0.222115183618811   0.626182539290925   1.0000000
N2   N   0.944294303089940   0.222137880078759   0.624538368115684   1.0000000
N2   N   0.277654073911340   0.722157679860030   0.125688001684466   1.0000000
N2   N   0.110900296321413   0.222116814827331   0.124805611272952   1.0000000
N2   N   0.444333037387245   0.222177287359859   0.122641356392679   1.0000000
N2   N   0.611015542321960   0.722233692036262   0.123817460709057   1.0000000
N2   N   0.944283642003241   0.722150681517767   0.124889078320498   1.0000000
N2   N   0.777668525765462   0.222125883321415   0.125222981718162   1.0000000
N2   N   0.110967640097156   0.888822780999732   0.624599862233208   1.0000000
N2   N   0.444336244472819   0.888834788903006   0.624207200855152   1.0000000
N2   N   0.277515560616241   0.388767022891446   0.626982274813935   1.0000000
N2   N   0.611115114337768   0.388713429040597   0.630427786273131   1.0000000
N2   N   0.777668525765462   0.888875975777337   0.624777018281733   1.0000000
N2   N   0.944300044687894   0.388801817250426   0.624706016376315   1.0000000
N2   N   0.110930332727613   0.388798877689362   0.125125986354720   1.0000000
N2   N   0.277654073911340   0.888829727384543   0.125688001684466   1.0000000
N2   N   0.611006746560489   0.888855735268224   0.125558945321204   1.0000000
N2   N   0.443935942695452   0.388634638014493   0.118682717552077   1.0000000
N2   N   0.944300044687894   0.888831560770863   0.125293983623687   1.0000000
N2   N   0.777655756533579   0.388775721637588   0.123847526616668   1.0000000
N2   N   0.277647866495627   0.555479023298937   0.625126583372578   1.0000000
N2   N   0.110930332727613   0.055464788371536   0.624874013645121   1.0000000
N2   N   0.611115114337768   0.555735018630484   0.630427786273132   1.0000000
N2   N   0.444333806352500   0.055502648720707   0.624831546703233   1.0000000
N2   N   0.944283642003241   0.555466293818821   0.625110921679441   1.0000000
N2   N   0.110967640097156   0.555478192430951   0.125400137766634   1.0000000
N2   N   0.777667338095893   0.055500335714532   0.624362244629156   1.0000000
N2   N   0.277647866495627   0.055502176529969   0.124873416627406   1.0000000
N2   N   0.444333037387245   0.555489083360775   0.122641356392686   1.0000000
N2   N   0.777626170090118   0.555479751711608   0.122963967809774   1.0000000
N2   N   0.611006746560489   0.055484344625596   0.125558945321204   1.0000000
N2   N   0.444333037387245   0.555489083360775   0.627358643607379   1.0000000
N2   N   0.944294303089941   0.055489756344438   0.125461631884275   1.0000000
N2   N   0.277654073911340   0.722157679860027   0.624311998315609   1.0000000
N2   N   0.110900296321413   0.222116814827331   0.625194388727060   1.0000000
N2   N   0.444333037387245   0.222177287359858   0.627358643607379   1.0000000
N2   N   0.611015542321960   0.722233692036262   0.626182539290925   1.0000000
N2   N   0.944283642003241   0.722150681517767   0.625110921679439   1.0000000
N2   N   0.777668525765463   0.222125883321415   0.624777018281733   1.0000000
N2   N   0.110962869323399   0.722148101328354   0.125497034833240   1.0000000
N2   N   0.444333806352500   0.722164490965104   0.125168453296790   1.0000000
N2   N   0.277515560616241   0.222081871058162   0.123017725185921   1.0000000
N2   N   0.777655756533579   0.722213368229281   0.123847526616668   1.0000000
N2   N   0.611015542321960   0.222115183618808   0.123817460709068   1.0000000
N2   N   0.944294303089941   0.222137880078759   0.125461631884275   1.0000000
N2   N   0.110930332727613   0.388798877689362   0.624874013645121   1.0000000
N2   N   0.277654073911340   0.888829727384543   0.624311998315609   1.0000000
N2   N   0.611006746560489   0.888855735268224   0.624441054678743   1.0000000
N2   N   0.443935942695452   0.388634638014494   0.631317282447882   1.0000000
N2   N   0.944300044687894   0.888831560770863   0.624706016376315   1.0000000
N2   N   0.110967640097156   0.888822780999732   0.125400137766634   1.0000000
N2   N   0.777655756533579   0.388775721637588   0.626152473383304   1.0000000
N2   N   0.444336244472819   0.888834788903006   0.125792799144730   1.0000000
N2   N   0.277515560616241   0.388767022891446   0.123017725185921   1.0000000
N2   N   0.277647866495627   0.555479023298937   0.124873416627406   1.0000000
N2   N   0.611115114337768   0.388713429040595   0.119572213726956   1.0000000
N2   N   0.777668525765462   0.888875975777337   0.125222981718162   1.0000000
N2   N   0.944300044687894   0.388801817250426   0.125293983623684   1.0000000
N2   N   0.110967640097156   0.555478192430953   0.624599862233208   1.0000000
N2   N   0.277647866495627   0.055502176529969   0.625126583372578   1.0000000
N2   N   0.777626170090118   0.555479751711608   0.627036032190362   1.0000000
N2   N   0.611006746560489   0.055484344625596   0.624441054678743   1.0000000
N2   N   0.944294303089941   0.055489756344438   0.624538368115684   1.0000000
N2   N   0.058289937292800   0.112601101408021   0.375000000000000   1.0000000
N2   N   0.555444469735486   0.622716337391599   0.375000000000000   1.0000000
N2   N   0.387157137184158   0.102356064660459   0.375000000000000   1.0000000
N2   N   0.887679856355835   0.610506594844718   0.375000000000000   1.0000000
N2   N   0.724475465441310   0.111140677528912   0.375000000000000   1.0000000
N2   N   0.055935115975093   0.777964426069405   0.875000000000000   1.0000000
N2   N   0.389245658928233   0.777968361215031   0.875000000000000   1.0000000
N2   N   0.222581912232903   0.277957622783105   0.875000000000000   1.0000000
N2   N   0.722586181562302   0.777956188991713   0.875000000000000   1.0000000
N2   N   0.555906060998382   0.277937152708581   0.875000000000000   1.0000000
N2   N   0.889255958148513   0.277964410217941   0.875000000000000   1.0000000
N2   N   0.220465549982638   0.776899441657985   0.375000000000000   1.0000000
N2   N   0.058289937292800   0.279022169218131   0.375000000000000   1.0000000
N2   N   0.386714150296103   0.262700010097660   0.375000000000000   1.0000000
N2   N   0.556046785800315   0.783244427256259   0.375000000000000   1.0000000
N2   N   0.889973296711552   0.779179175788722   0.375000000000000   1.0000000
N2   N   0.724335243793707   0.276029570498388   0.375000000000000   1.0000000
N2   N   0.055921401582616   0.944619711507127   0.875000000000000   1.0000000
N2   N   0.389245658928233   0.944610631046563   0.875000000000000   1.0000000
N2   N   0.222578779406613   0.444640784477225   0.875000000000000   1.0000000
N2   N   0.555926003036074   0.444629668184701   0.875000000000000   1.0000000
N2   N   0.722577761581038   0.944621972877031   0.875000000000000   1.0000000
N2   N   0.889270444984974   0.444639130941828   0.875000000000000   1.0000000
N2   N   0.055831405871538   0.445065154672784   0.375000000000000   1.0000000
N2   N   0.220508301194099   0.941558155983374   0.375000000000000   1.0000000
N2   N   0.556222518272591   0.944777925802999   0.375000000000000   1.0000000
N2   N   0.386714150296103   0.457347473531909   0.375000000000000   1.0000000
N2   N   0.891270928348670   0.946521327556361   0.375000000000000   1.0000000
N2   N   0.724320864669521   0.443021980140961   0.375000000000000   1.0000000
N2   N   0.222579401506910   0.611304458454932   0.875000000000000   1.0000000
N2   N   0.055920635035790   0.111288429286600   0.875000000000000   1.0000000
N2   N   0.555906060998382   0.611302241623014   0.875000000000000   1.0000000
N2   N   0.389236586587632   0.111259484935543   0.875000000000000   1.0000000
N2   N   0.889296685309052   0.611315009321210   0.875000000000000   1.0000000
N2   N   0.054202624364013   0.610834435638647   0.375000000000000   1.0000000
N2   N   0.722577761581038   0.111289122037401   0.875000000000000   1.0000000
N2   N   0.221705660067205   0.108276369112400   0.375000000000000   1.0000000
N2   N   0.387157137184160   0.618134405857046   0.375000000000000   1.0000000
N2   N   0.724320864669521   0.614632217861919   0.375000000000000   1.0000000
N2   N   0.556046785800316   0.106135691877538   0.375000000000000   1.0000000
N2   N   0.389236586587632   0.611310434985262   0.875000000000000   1.0000000
N2   N   0.891704648614227   0.112518990973800   0.375000000000000   1.0000000
N2   N   0.222586463739410   0.777959898536344   0.875000000000000   1.0000000
N2   N   0.055920635035790   0.277965539082472   0.875000000000000   1.0000000
N2   N   0.389239764506564   0.277923207282411   0.875000000000000   1.0000000
N2   N   0.555905930350983   0.777963112054227   0.875000000000000   1.0000000
N2   N   0.889270444984975   0.777964647376297   0.875000000000000   1.0000000
N2   N   0.722586181562302   0.277963325904055   0.875000000000000   1.0000000
N2   N   0.054202624364013   0.776701522058612   0.375000000000000   1.0000000
N2   N   0.387731280232017   0.779647574056705   0.375000000000000   1.0000000
N2   N   0.226338335787979   0.279835834560780   0.375000000000000   1.0000000
N2   N   0.724335243793712   0.781639006628781   0.375000000000000   1.0000000
N2   N   0.555444469735486   0.266061465677388   0.375000000000000   1.0000000
N2   N   0.891270928348669   0.278082934125651   0.375000000000000   1.0000000
N2   N   0.055921401582615   0.444635023408823   0.875000000000000   1.0000000
N2   N   0.222579401506910   0.944608276385286   0.875000000000000   1.0000000
N2   N   0.555908879237861   0.944621106285637   0.875000000000000   1.0000000
N2   N   0.389239764506564   0.444649890557416   0.875000000000000   1.0000000
N2   N   0.889255958148513   0.944624881263921   0.875000000000000   1.0000000
N2   N   0.055831405871538   0.944099584532264   0.375000000000000   1.0000000
N2   N   0.722626197368233   0.444652056504312   0.875000000000000   1.0000000
N2   N   0.387731280232017   0.941417039508362   0.375000000000000   1.0000000
N2   N   0.221705660067205   0.446762624288223   0.375000000000000   1.0000000
N2   N   0.220508301194099   0.612283478544069   0.375000000000000   1.0000000
N2   N   0.724475465441310   0.946668121245782   0.375000000000000   1.0000000
N2   N   0.889973296711551   0.444127454256168   0.375000000000000   1.0000000
N2   N   0.055935115975093   0.611304023238931   0.875000000000000   1.0000000
N2   N   0.222578779406613   0.111271328262774   0.875000000000000   1.0000000
N2   N   0.722626197368233   0.611307474197119   0.875000000000000   1.0000000
N2   N   0.555905930350983   0.111276151630048   0.875000000000000   1.0000000
N2   N   0.889253434586815   0.111293383960090   0.875000000000000   1.0000000
B2   B   0.111994923304522   0.055123248677398   0.375000000000000   1.0000000
B2   B   0.615784985359097   0.573837062764968   0.375000000000000   1.0000000
B2   B   0.444554401452557   0.050824456451525   0.375000000000000   1.0000000
B2   B   0.943423293206142   0.555184804604772   0.375000000000000   1.0000000
B2   B   0.780728127022682   0.057030730178105   0.375000000000000   1.0000000
B2   B   0.111482328703791   0.722407831018715   0.875000000000000   1.0000000
B2   B   0.444792734992141   0.722366927288338   0.875000000000000   1.0000000
B2   B   0.278209553774272   0.222446555739052   0.875000000000000   1.0000000
B2   B   0.778101618152392   0.722332022255996   0.875000000000000   1.0000000
B2   B   0.611430371742962   0.222446829471903   0.875000000000000   1.0000000
B2   B   0.944825947488084   0.222421902966807   0.875000000000000   1.0000000
B2   B   0.276665410643660   0.722777770207960   0.375000000000000   1.0000000
B2   B   0.115528852835509   0.224431093084464   0.375000000000000   1.0000000
B2   B   0.442750418993723   0.211503235270856   0.375000000000000   1.0000000
B2   B   0.612791740016473   0.730411490331915   0.375000000000000   1.0000000
B2   B   0.943423293206141   0.721571821934584   0.375000000000000   1.0000000
B2   B   0.780389173402823   0.221954657261320   0.375000000000000   1.0000000
B2   B   0.111486614866596   0.889076838181971   0.875000000000000   1.0000000
B2   B   0.444794928864507   0.889064131098881   0.875000000000000   1.0000000
B2   B   0.278209553774272   0.389096331368502   0.875000000000000   1.0000000
B2   B   0.611422577957045   0.389110398178614   0.875000000000000   1.0000000
B2   B   0.778120321153295   0.889023877331632   0.875000000000000   1.0000000
B2   B   0.944807646601915   0.389087591695471   0.875000000000000   1.0000000
B2   B   0.111994923304522   0.390205007960439   0.375000000000000   1.0000000
B2   B   0.276665410643659   0.887220973769082   0.375000000000000   1.0000000
B2   B   0.613156067963393   0.892192224552694   0.375000000000000   1.0000000
B2   B   0.945560745147706   0.889913253071713   0.375000000000000   1.0000000
B2   B   0.779658418990644   0.387659845589227   0.375000000000000   1.0000000
B2   B   0.278167023754969   0.555737126547556   0.875000000000000   1.0000000
B2   B   0.111509337113082   0.055754881327177   0.875000000000000   1.0000000
B2   B   0.611422577957045   0.555645513111485   0.875000000000000   1.0000000
B2   B   0.444792734992141   0.055759141036930   0.875000000000000   1.0000000
B2   B   0.944801468834610   0.555746274107311   0.875000000000000   1.0000000
B2   B   0.110066143706659   0.555922046938678   0.375000000000000   1.0000000
B2   B   0.778133803059449   0.055733568196282   0.875000000000000   1.0000000
B2   B   0.276685498667584   0.052086933528854   0.375000000000000   1.0000000
B2   B   0.442750418993724   0.564580517056224   0.375000000000000   1.0000000
B2   B   0.776109736598664   0.554721534966324   0.375000000000000   1.0000000
B2   B   0.613156067963393   0.054297176743832   0.375000000000000   1.0000000
B2   B   0.444817247017468   0.555699610903581   0.875000000000000   1.0000000
B2   B   0.947580540771071   0.057527582298867   0.375000000000000   1.0000000
B2   B   0.278144272384874   0.722399330063041   0.875000000000000   1.0000000
B2   B   0.111532717567124   0.222433025450218   0.875000000000000   1.0000000
B2   B   0.444817247017469   0.222450969447149   0.875000000000000   1.0000000
B2   B   0.611430371742962   0.722316875604183   0.875000000000000   1.0000000
B2   B   0.944801468834610   0.722388528060530   0.875000000000000   1.0000000
B2   B   0.778120321153295   0.222429777154675   0.875000000000000   1.0000000
B2   B   0.109684071244757   0.721508702289092   0.375000000000000   1.0000000
B2   B   0.444554401452559   0.727063278334340   0.375000000000000   1.0000000
B2   B   0.279971593720148   0.220372177885247   0.375000000000000   1.0000000
B2   B   0.779658418990644   0.725331906734717   0.375000000000000   1.0000000
B2   B   0.612791740016473   0.215713583017889   0.375000000000000   1.0000000
B2   B   0.947580540771069   0.223386291805547   0.375000000000000   1.0000000
B2   B   0.111509337113082   0.389087789119200   0.875000000000000   1.0000000
B2   B   0.278144272384874   0.889078275655129   0.875000000000000   1.0000000
B2   B   0.611455343067229   0.889034534475125   0.875000000000000   1.0000000
B2   B   0.444868537593299   0.389100935463340   0.875000000000000   1.0000000
B2   B   0.944807646601914   0.889053388239702   0.875000000000000   1.0000000
B2   B   0.110066143706659   0.887477430101355   0.375000000000000   1.0000000
B2   B   0.778101618152393   0.389102929229826   0.875000000000000   1.0000000
B2   B   0.444757151918559   0.889045242625947   0.375000000000000   1.0000000
B2   B   0.279971593720147   0.392932749168335   0.375000000000000   1.0000000
B2   B   0.276685498667583   0.557931898472000   0.375000000000000   1.0000000
B2   B   0.615784985359097   0.375281255927357   0.375000000000000   1.0000000
B2   B   0.780389173402823   0.891767849474688   0.375000000000000   1.0000000
B2   B   0.945560745147706   0.388980825409243   0.375000000000000   1.0000000
B2   B   0.111486614866596   0.555743110018020   0.875000000000000   1.0000000
B2   B   0.278167023754969   0.055763230540692   0.875000000000000   1.0000000
B2   B   0.778105317034172   0.555719325183860   0.875000000000000   1.0000000
B2   B   0.611455343067229   0.055754141925386   0.875000000000000   1.0000000
B2   B   0.944825947488084   0.055737377854722   0.875000000000000   1.0000000
B2   B   0.055455102566146   0.111088913588969   0.125363964142083   1.0000000
B2   B   0.555485746430394   0.610881813444766   0.122340508726004   1.0000000
B2   B   0.388859610346444   0.111288190681384   0.124671585045923   1.0000000
B2   B   0.888517873892337   0.610925603612910   0.124525265419373   1.0000000
B2   B   0.722097889356288   0.111055730364813   0.125650918645947   1.0000000
B2   B   0.055357996728308   0.777701885229958   0.624548121113269   1.0000000
B2   B   0.388814523628373   0.777679522373695   0.624203410859460   1.0000000
B2   B   0.222154653031286   0.277743993182350   0.626031768332353   1.0000000
B2   B   0.722029931603149   0.777656738873148   0.625539214332444   1.0000000
B2   B   0.555485746430395   0.277937266319164   0.627659491274031   1.0000000
B2   B   0.888740774731736   0.277687066423653   0.624498841048567   1.0000000
B2   B   0.222104359423668   0.777718846378692   0.125820937380126   1.0000000
B2   B   0.055455102566146   0.277699522310507   0.125363964142083   1.0000000
B2   B   0.388765002071515   0.277878173263305   0.121911825117277   1.0000000
B2   B   0.555453694063796   0.777645528530553   0.125104649579463   1.0000000
B2   B   0.888639534568281   0.777662611626430   0.124886298709549   1.0000000
B2   B   0.722029931603149   0.277706526063277   0.124460785667587   1.0000000
B2   B   0.055424006245744   0.944426946196099   0.624508372567473   1.0000000
B2   B   0.388814523628373   0.944468334588038   0.624203410859460   1.0000000
B2   B   0.222153477205120   0.444303430162880   0.625265476936879   1.0000000
B2   B   0.555316437966203   0.444324885649765   0.626857297121907   1.0000000
B2   B   0.722097889356288   0.944375492324852   0.624349081353967   1.0000000
B2   B   0.888639534568280   0.444310256275277   0.625113701290509   1.0000000
B2   B   0.055424006245739   0.444330393383044   0.125491627432713   1.0000000
B2   B   0.222144070896767   0.944496114895985   0.125566631010714   1.0000000
B2   B   0.555457632570841   0.944395482952060   0.125853064101950   1.0000000
B2   B   0.388765002071515   0.444220162141603   0.121911825117282   1.0000000
B2   B   0.888740774731736   0.944387041641541   0.125501158951530   1.0000000
B2   B   0.721780737514707   0.444228149192929   0.122338412173924   1.0000000
B2   B   0.222144070896767   0.610981289334128   0.624433368989317   1.0000000
B2   B   0.055455102566145   0.111088913588965   0.624636035857939   1.0000000
B2   B   0.555485746430394   0.610881813444766   0.627659491274031   1.0000000
B2   B   0.388859610346444   0.111288190681384   0.625328414954220   1.0000000
B2   B   0.888517873892337   0.610925603612910   0.625474734580772   1.0000000
B2   B   0.055357996728308   0.610989444831537   0.125451878886805   1.0000000
B2   B   0.722097889356288   0.111055730364813   0.624349081353967   1.0000000
B2   B   0.222153477205120   0.111183380375578   0.124734523063198   1.0000000
B2   B   0.388859610346445   0.610904752998615   0.124671585045925   1.0000000
B2   B   0.721780737514708   0.610885921654997   0.122338412173924   1.0000000
B2   B   0.555453694063796   0.111141498866534   0.125104649579463   1.0000000
B2   B   0.388859610346444   0.610904752998615   0.625328414954220   1.0000000
B2   B   0.888768141928168   0.111050737630750   0.125689244287273   1.0000000
B2   B   0.222104359423668   0.777718846378692   0.624179062619954   1.0000000
B2   B   0.055455102566147   0.277699522310507   0.624636035857939   1.0000000
B2   B   0.388765002071515   0.277878173263306   0.628088174882787   1.0000000
B2   B   0.555453694063796   0.777645528530553   0.624895350420469   1.0000000
B2   B   0.888639534568280   0.777662611626425   0.625113701290509   1.0000000
B2   B   0.722029931603149   0.277706526063277   0.625539214332444   1.0000000
B2   B   0.055357996728308   0.777701885229958   0.125451878886806   1.0000000
B2   B   0.388814523628373   0.777679522373694   0.125796589140467   1.0000000
B2   B   0.222154653031286   0.277743993182348   0.123968231667537   1.0000000
B2   B   0.722029931603149   0.777656738873148   0.124460785667587   1.0000000
B2   B   0.555485746430396   0.277937266319165   0.122340508726004   1.0000000
B2   B   0.888740774731736   0.277687066423653   0.125501158951530   1.0000000
B2   B   0.055424006245744   0.444330393383044   0.624508372567473   1.0000000
B2   B   0.222144070896767   0.944496114895985   0.624433368989317   1.0000000
B2   B   0.555457632570841   0.944395482952060   0.624146935897985   1.0000000
B2   B   0.388765002071515   0.444220162141603   0.628088174882787   1.0000000
B2   B   0.888740774731736   0.944387041641541   0.624498841048567   1.0000000
B2   B   0.055424006245744   0.944426946196099   0.125491627432713   1.0000000
B2   B   0.721780737514708   0.444228149192929   0.627661587826087   1.0000000
B2   B   0.388814523628373   0.944468334588038   0.125796589140467   1.0000000
B2   B   0.222153477205120   0.444303430162880   0.124734523063198   1.0000000
B2   B   0.222144070896767   0.610981289334128   0.125566631010714   1.0000000
B2   B   0.555316437966202   0.444324885649765   0.123142702878154   1.0000000
B2   B   0.722097889356288   0.944375492324852   0.125650918645947   1.0000000
B2   B   0.888639534568281   0.444310256275277   0.124886298709549   1.0000000
B2   B   0.055357996728308   0.610989444831537   0.624548121113269   1.0000000
B2   B   0.222153477205120   0.111183380375578   0.625265476936879   1.0000000
B2   B   0.721780737514708   0.610885921654996   0.627661587826087   1.0000000
B2   B   0.555453694063796   0.111141498866533   0.624895350420469   1.0000000
B2   B   0.888768141928168   0.111050737630750   0.624310755712806   1.0000000


