data_1
_audit_creation_method   'vasp2cif'
_cell_length_a    14.93631414619966
_cell_length_b    14.936314146199727
_cell_length_c    13.341276283792837
_cell_angle_alpha    90.0
_cell_angle_beta    90.0
_cell_angle_gamma    119.99999999999984

_symmetry_space_group_name_H-M    'P 1'
loop_
_atom_site_label
_atom_site_type_symbol
_atom_site_fract_x
_atom_site_fract_y
_atom_site_fract_z
_atom_site_occupancy
Ge2   Ge   0.509085540984395   0.421209437158862   0.375000000000000   1.0000000
N2   N   0.110539205714817   0.055273242670348   0.124860741051029   1.0000000
N2   N   0.610813369101310   0.555652399335050   0.124071350230406   1.0000000
N2   N   0.443981092822720   0.055311012600911   0.124749746061529   1.0000000
N2   N   0.943926424905125   0.555278016635484   0.124815909371501   1.0000000
N2   N   0.777320209610289   0.055326771471873   0.125108603665657   1.0000000
N2   N   0.110591797027961   0.721962565180484   0.624722455396209   1.0000000
N2   N   0.443981092822720   0.722003413554578   0.625250253938608   1.0000000
N2   N   0.277082244552971   0.221864750482629   0.625826734924608   1.0000000
N2   N   0.777336765848471   0.722112932806045   0.625963755290513   1.0000000
N2   N   0.610687349676907   0.221895107136885   0.625989916905341   1.0000000
N2   N   0.943920226096391   0.221940345108344   0.624914368578513   1.0000000
N2   N   0.277285130821593   0.721974163779234   0.125202245827548   1.0000000
N2   N   0.110478837798722   0.221906085566029   0.124738117781932   1.0000000
N2   N   0.443970187780924   0.221974660014233   0.124517140146633   1.0000000
N2   N   0.610687349676907   0.722125575873459   0.124010083094873   1.0000000
N2   N   0.943926424905125   0.721981741602474   0.124815909371501   1.0000000
N2   N   0.777330737191287   0.221918253050545   0.124756990678879   1.0000000
N2   N   0.110593666943334   0.888642118433240   0.624904214083398   1.0000000
N2   N   0.443980676046356   0.888657004689649   0.624965957102173   1.0000000
N2   N   0.277082244552971   0.388550827403830   0.625826734924608   1.0000000
N2   N   0.610813369101310   0.388494303099076   0.625928649769875   1.0000000
N2   N   0.777330737191287   0.888745817474132   0.625243009321169   1.0000000
N2   N   0.943944441927149   0.388599995975528   0.625088111424587   1.0000000
N2   N   0.110539205714817   0.388599296377694   0.124860741051029   1.0000000
N2   N   0.277285130821593   0.888644300376241   0.125202245827548   1.0000000
N2   N   0.610667380114612   0.888706018293768   0.124851874719455   1.0000000
N2   N   0.443472555929400   0.388402944631287   0.124479781960726   1.0000000
N2   N   0.943944441927149   0.888677779284623   0.124911888575704   1.0000000
N2   N   0.777336765848471   0.388557166375686   0.124036244709439   1.0000000
N2   N   0.277274227146338   0.555296144247197   0.625221708446647   1.0000000
N2   N   0.110539205714817   0.055273242670348   0.625139258948736   1.0000000
N2   N   0.610813369101310   0.555652399335050   0.625928649769875   1.0000000
N2   N   0.443981092822720   0.055311012600911   0.625250253938608   1.0000000
N2   N   0.943926424905125   0.555278016635484   0.625184090628272   1.0000000
N2   N   0.110593666943334   0.555284881843589   0.125095785916578   1.0000000
N2   N   0.777320209610289   0.055326771471873   0.624891396334563   1.0000000
N2   N   0.277274227146338   0.055311416232226   0.124778291553599   1.0000000
N2   N   0.443970187780924   0.555328861100528   0.124517140146629   1.0000000
N2   N   0.777286741390751   0.555310037361538   0.124322964014109   1.0000000
N2   N   0.610667380114612   0.055294695153617   0.124851874719455   1.0000000
N2   N   0.443970187780924   0.555328861100528   0.625482859853418   1.0000000
N2   N   0.943920226096391   0.055313214320959   0.125085631421564   1.0000000
N2   N   0.277285130821583   0.721974163779234   0.624797754171985   1.0000000
N2   N   0.110478837798722   0.221906085566032   0.625261882217872   1.0000000
N2   N   0.443970187780924   0.221974660014233   0.625482859853418   1.0000000
N2   N   0.610687349676907   0.722125575873459   0.625989916905341   1.0000000
N2   N   0.943926424905125   0.721981741602474   0.625184090628272   1.0000000
N2   N   0.777330737191287   0.221918253050545   0.625243009321169   1.0000000
N2   N   0.110591797027961   0.721962565180484   0.125277544603496   1.0000000
N2   N   0.443981092822720   0.722003413554578   0.124749746061529   1.0000000
N2   N   0.277082244552971   0.221864750482629   0.124173265075431   1.0000000
N2   N   0.777336765848471   0.722112932806045   0.124036244709439   1.0000000
N2   N   0.610687349676907   0.221895107136878   0.124010083094872   1.0000000
N2   N   0.943920226096391   0.221940345108344   0.125085631421564   1.0000000
N2   N   0.110539205714817   0.388599296377694   0.625139258948736   1.0000000
N2   N   0.277285130821583   0.888644300376241   0.624797754171985   1.0000000
N2   N   0.610667380114612   0.888706018293848   0.625148125280179   1.0000000
N2   N   0.443472555929400   0.388402944631287   0.625520218039024   1.0000000
N2   N   0.943944441927149   0.888677779284623   0.625088111424587   1.0000000
N2   N   0.110593666943334   0.888642118433240   0.125095785916578   1.0000000
N2   N   0.777336765848471   0.388557166375687   0.625963755290513   1.0000000
N2   N   0.443980676046356   0.888657004689649   0.125034042898089   1.0000000
N2   N   0.277082244552971   0.388550827403830   0.124173265075431   1.0000000
N2   N   0.277274227146338   0.555296144247197   0.124778291553592   1.0000000
N2   N   0.610813369101310   0.388494303099076   0.124071350230406   1.0000000
N2   N   0.777330737191287   0.888745817473967   0.124756990678879   1.0000000
N2   N   0.943944441927149   0.388599995975528   0.124911888575704   1.0000000
N2   N   0.110593666943334   0.555284881843589   0.624904214083398   1.0000000
N2   N   0.277274227146338   0.055311416232226   0.625221708446647   1.0000000
N2   N   0.777286741390751   0.555310037361538   0.625677035986232   1.0000000
N2   N   0.610667380114612   0.055294695153617   0.625148125280179   1.0000000
N2   N   0.943920226096391   0.055313214320959   0.624914368578513   1.0000000
N2   N   0.060273788535734   0.113662640651986   0.375000000000000   1.0000000
N2   N   0.556858475322346   0.623704078757642   0.375000000000000   1.0000000
N2   N   0.388927348720990   0.105528689700445   0.375000000000000   1.0000000
N2   N   0.886457270575047   0.609895301954830   0.375000000000000   1.0000000
N2   N   0.725653709485379   0.111711910468033   0.375000000000000   1.0000000
N2   N   0.055575516643724   0.777783921030498   0.875000000000000   1.0000000
N2   N   0.388875983474213   0.777781474387071   0.875000000000000   1.0000000
N2   N   0.222240504320009   0.277786918826482   0.875000000000000   1.0000000
N2   N   0.722215865317651   0.777761129325312   0.875000000000000   1.0000000
N2   N   0.555533951869573   0.277762333861867   0.875000000000000   1.0000000
N2   N   0.888892163623812   0.277789689387139   0.875000000000000   1.0000000
N2   N   0.221381952129148   0.777357642730873   0.375000000000000   1.0000000
N2   N   0.060273788535734   0.279944481217135   0.375000000000000   1.0000000
N2   N   0.394012266881114   0.273304794759628   0.375000000000000   1.0000000
N2   N   0.557063021046476   0.783765407358316   0.375000000000000   1.0000000
N2   N   0.889673130324814   0.778764917087519   0.375000000000000   1.0000000
N2   N   0.725199895114371   0.276362361265087   0.375000000000000   1.0000000
N2   N   0.055562021095206   0.944438262198678   0.875000000000000   1.0000000
N2   N   0.388875983474213   0.944427842420417   0.875000000000000   1.0000000
N2   N   0.222226640534037   0.444460113194339   0.875000000000000   1.0000000
N2   N   0.555550288218244   0.444441810775786   0.875000000000000   1.0000000
N2   N   0.722212545678681   0.944434584712331   0.875000000000000   1.0000000
N2   N   0.888905532053318   0.444463582298503   0.875000000000000   1.0000000
N2   N   0.057361015256750   0.445540415083446   0.375000000000000   1.0000000
N2   N   0.221868472897454   0.942732632606538   0.375000000000000   1.0000000
N2   N   0.557171870201831   0.945252601767382   0.375000000000000   1.0000000
N2   N   0.394012266881114   0.454040805454956   0.375000000000000   1.0000000
N2   N   0.892626522019288   0.947165640574641   0.375000000000000   1.0000000
N2   N   0.720825664949489   0.441437805372139   0.375000000000000   1.0000000
N2   N   0.222216178630747   0.611122603054196   0.875000000000000   1.0000000
N2   N   0.055565437601250   0.111111224704445   0.875000000000000   1.0000000
N2   N   0.555533951869573   0.611104951340439   0.875000000000000   1.0000000
N2   N   0.388873008056977   0.111081252982689   0.875000000000000   1.0000000
N2   N   0.888931626168554   0.611132479750959   0.875000000000000   1.0000000
N2   N   0.054582565110675   0.610990564370488   0.375000000000000   1.0000000
N2   N   0.722212545678681   0.111111294299864   0.875000000000000   1.0000000
N2   N   0.225136404319018   0.111279618376250   0.375000000000000   1.0000000
N2   N   0.388927348720990   0.616731992353997   0.375000000000000   1.0000000
N2   N   0.720825664949489   0.612721192909958   0.375000000000000   1.0000000
N2   N   0.557063021046476   0.106630947021446   0.375000000000000   1.0000000
N2   N   0.388873008056977   0.611125088408064   0.875000000000000   1.0000000
N2   N   0.893295350116849   0.113314341725355   0.375000000000000   1.0000000
N2   N   0.222223006489998   0.777778169911370   0.875000000000000   1.0000000
N2   N   0.055565437601250   0.277787546230039   0.875000000000000   1.0000000
N2   N   0.388894993751744   0.277759851087096   0.875000000000000   1.0000000
N2   N   0.555537470028278   0.777770843857622   0.875000000000000   1.0000000
N2   N   0.888905532053318   0.777775283088397   0.875000000000000   1.0000000
N2   N   0.722215865317651   0.277788069326088   0.875000000000000   1.0000000
N2   N   0.054582565110677   0.776925334073967   0.375000000000000   1.0000000
N2   N   0.388840901562141   0.779612834637255   0.375000000000000   1.0000000
N2   N   0.228780768829630   0.281057051081678   0.375000000000000   1.0000000
N2   N   0.725199895114371   0.782170867182609   0.375000000000000   1.0000000
N2   N   0.556858475322346   0.266487729897830   0.375000000000000   1.0000000
N2   N   0.892626522019288   0.278794214778080   0.375000000000000   1.0000000
N2   N   0.055562021095207   0.444457092229836   0.875000000000000   1.0000000
N2   N   0.222216178630748   0.944426908909272   0.875000000000000   1.0000000
N2   N   0.555539402945051   0.944436368139688   0.875000000000000   1.0000000
N2   N   0.388894993751744   0.444468475997936   0.875000000000000   1.0000000
N2   N   0.888892163623812   0.944435807570080   0.875000000000000   1.0000000
N2   N   0.057361015256750   0.945153933506740   0.375000000000000   1.0000000
N2   N   0.722245414098027   0.444470403857244   0.875000000000000   1.0000000
N2   N   0.388840901562141   0.942561400258506   0.375000000000000   1.0000000
N2   N   0.225136404319018   0.447190119275957   0.375000000000000   1.0000000
N2   N   0.221868472897456   0.612469173624244   0.375000000000000   1.0000000
N2   N   0.725653709485379   0.947275132350296   0.375000000000000   1.0000000
N2   N   0.889673130324814   0.444241546570399   0.375000000000000   1.0000000
N2   N   0.055575516643724   0.611124928945869   0.875000000000000   1.0000000
N2   N   0.222226640534037   0.111099860673007   0.875000000000000   1.0000000
N2   N   0.722245414098036   0.611108343574120   0.875000000000000   1.0000000
N2   N   0.555537470028278   0.111099959503861   0.875000000000000   1.0000000
N2   N   0.888891543620649   0.111112438476817   0.875000000000000   1.0000000
B2   B   0.114909005391788   0.057033572626230   0.375000000000000   1.0000000
B2   B   0.607584037787278   0.564750364671223   0.375000000000000   1.0000000
B2   B   0.445635624374704   0.052809297584658   0.375000000000000   1.0000000
B2   B   0.942960646473694   0.555210483327329   0.375000000000000   1.0000000
B2   B   0.782032886289140   0.057683109811459   0.375000000000000   1.0000000
B2   B   0.111103161391527   0.722218247362223   0.875000000000000   1.0000000
B2   B   0.444429146711113   0.722145026533348   0.875000000000000   1.0000000
B2   B   0.277933250313634   0.222324249993780   0.875000000000000   1.0000000
B2   B   0.777688007339041   0.722073423314834   0.875000000000000   1.0000000
B2   B   0.611040533840542   0.222316255354806   0.875000000000000   1.0000000
B2   B   0.944478108854578   0.222259439332904   0.875000000000000   1.0000000
B2   B   0.277739211362299   0.723023175931324   0.375000000000000   1.0000000
B2   B   0.118285122916645   0.225809228124863   0.375000000000000   1.0000000
B2   B   0.445299795717721   0.216452896680453   0.375000000000000   1.0000000
B2   B   0.613582424145279   0.730254167542102   0.375000000000000   1.0000000
B2   B   0.942960646473694   0.721083496479963   0.375000000000000   1.0000000
B2   B   0.781421613469985   0.222808828003098   0.375000000000000   1.0000000
B2   B   0.111127055381962   0.888893687132205   0.875000000000000   1.0000000
B2   B   0.444420724654025   0.888877028993780   0.875000000000000   1.0000000
B2   B   0.277933250313634   0.388942333653160   0.875000000000000   1.0000000
B2   B   0.611022903979787   0.388953607529878   0.875000000000000   1.0000000
B2   B   0.777730250151712   0.888786230420172   0.875000000000000   1.0000000
B2   B   0.944433958137769   0.388930281728418   0.875000000000000   1.0000000
B2   B   0.114909005391789   0.391208766099049   0.375000000000000   1.0000000
B2   B   0.277739211362299   0.888049368763993   0.375000000000000   1.0000000
B2   B   0.614064487653733   0.892502832393017   0.375000000000000   1.0000000
B2   B   0.946371264858713   0.889888989989395   0.375000000000000   1.0000000
B2   B   0.777872752186679   0.388147167943501   0.375000000000000   1.0000000
B2   B   0.277837800721177   0.555546635046383   0.875000000000000   1.0000000
B2   B   0.111193203597729   0.055598228204576   0.875000000000000   1.0000000
B2   B   0.611022903979787   0.555402629782942   0.875000000000000   1.0000000
B2   B   0.444429146711113   0.055617453511388   0.875000000000000   1.0000000
B2   B   0.944402392283413   0.555564211672362   0.875000000000000   1.0000000
B2   B   0.111144626363884   0.556372450884156   0.375000000000000   1.0000000
B2   B   0.777754314270659   0.055543823801549   0.875000000000000   1.0000000
B2   B   0.278730240713318   0.054047192732980   0.375000000000000   1.0000000
B2   B   0.445299795717721   0.562180232370293   0.375000000000000   1.0000000
B2   B   0.772956474335843   0.553144903834425   0.375000000000000   1.0000000
B2   B   0.614064487653733   0.054894988594905   0.375000000000000   1.0000000
B2   B   0.444479374295347   0.555481479894079   0.875000000000000   1.0000000
B2   B   0.949374413562370   0.058296608340747   0.375000000000000   1.0000000
B2   B   0.277785066479896   0.722207660524990   0.875000000000000   1.0000000
B2   B   0.111239450231975   0.222286391782678   0.875000000000000   1.0000000
B2   B   0.444479374295347   0.222331227734021   0.875000000000000   1.0000000
B2   B   0.611040533840542   0.722057611819039   0.875000000000000   1.0000000
B2   B   0.944402392283413   0.722171513943978   0.875000000000000   1.0000000
B2   B   0.777730250151712   0.222277353064307   0.875000000000000   1.0000000
B2   B   0.110232027372003   0.721782680352057   0.375000000000000   1.0000000
B2   B   0.445635624374704   0.726159660123593   0.375000000000000   1.0000000
B2   B   0.286007470754643   0.225062477128002   0.375000000000000   1.0000000
B2   B   0.777872752186679   0.723058917576966   0.375000000000000   1.0000000
B2   B   0.613582424145279   0.216661589936405   0.375000000000000   1.0000000
B2   B   0.949374413562370   0.224411138555025   0.375000000000000   1.0000000
B2   B   0.111193203597729   0.388928308726523   0.875000000000000   1.0000000
B2   B   0.277785066479896   0.888910739288450   0.875000000000000   1.0000000
B2   B   0.611064758966428   0.888817169173868   0.875000000000000   1.0000000
B2   B   0.444562010469862   0.388947671901754   0.875000000000000   1.0000000
B2   B   0.944433958137769   0.888837009741578   0.875000000000000   1.0000000
B2   B   0.111144626363873   0.888105508812963   0.375000000000000   1.0000000
B2   B   0.777688007339041   0.388947917358172   0.875000000000000   1.0000000
B2   B   0.445640012511152   0.889486672922183   0.375000000000000   1.0000000
B2   B   0.286007470754643   0.394278326959774   0.375000000000000   1.0000000
B2   B   0.278730240713318   0.558016381313819   0.375000000000000   1.0000000
B2   B   0.607584037787277   0.376167006450207   0.375000000000000   1.0000000
B2   B   0.781421613469987   0.891946118799893   0.375000000000000   1.0000000
B2   B   0.946371264858713   0.389815608203493   0.375000000000000   1.0000000
B2   B   0.111127055381962   0.555566701583015   0.875000000000000   1.0000000
B2   B   0.277837800721177   0.055624499007867   0.875000000000000   1.0000000
B2   B   0.777679576261566   0.555506454798019   0.875000000000000   1.0000000
B2   B   0.611064758966428   0.055580923125248   0.875000000000000   1.0000000
B2   B   0.944478108854578   0.055552002854727   0.875000000000000   1.0000000
B2   B   0.055106618279358   0.110929162117061   0.125298784241046   1.0000000
B2   B   0.555195093085219   0.610591320397621   0.125185751681109   1.0000000
B2   B   0.388597176213930   0.111296596396742   0.125274460890779   1.0000000
B2   B   0.887978904817886   0.610656119076086   0.125099286379395   1.0000000
B2   B   0.721748068340017   0.110898262236432   0.125254695442333   1.0000000
B2   B   0.054920952324135   0.777494429329638   0.624584449298572   1.0000000
B2   B   0.388490194869248   0.777468766533019   0.624650894546786   1.0000000
B2   B   0.221856117176231   0.277594725254551   0.624894879314923   1.0000000
B2   B   0.721635932592355   0.777415212961079   0.625248535724091   1.0000000
B2   B   0.555195093085219   0.277937106021001   0.624814248319011   1.0000000
B2   B   0.888358498976961   0.277500142294267   0.624733214569428   1.0000000
B2   B   0.221734017458514   0.777533675395778   0.125557511539869   1.0000000
B2   B   0.055106618279358   0.277510789495500   0.125298784241046   1.0000000
B2   B   0.388527258059775   0.277907065127047   0.125759501072372   1.0000000
B2   B   0.555139329157579   0.777415446190695   0.124976362130673   1.0000000
B2   B   0.888182540889801   0.777431774582722   0.124969559539340   1.0000000
B2   B   0.721635932592355   0.277554052964663   0.124751464276352   1.0000000
B2   B   0.055043853009624   0.944263894965663   0.624673282419751   1.0000000
B2   B   0.388490194869248   0.944354761670163   0.624650894546786   1.0000000
B2   B   0.221849430601932   0.444075384109151   0.624830012756361   1.0000000
B2   B   0.554899974122152   0.444116653727740   0.617891826676768   1.0000000
B2   B   0.721748068340017   0.944183139436813   0.624745304558114   1.0000000
B2   B   0.888182540889801   0.444084099640684   0.625030440460766   1.0000000
B2   B   0.055043853009625   0.444113291377292   0.125326717580463   1.0000000
B2   B   0.221801252091037   0.944385550236156   0.125399078190370   1.0000000
B2   B   0.555130465985607   0.944231899659338   0.125261011681412   1.0000000
B2   B   0.388527258059775   0.443953526266364   0.125759501072371   1.0000000
B2   B   0.888358498976961   0.944191690016459   0.125266785430572   1.0000000
B2   B   0.721218364268671   0.443949069020203   0.124849861108966   1.0000000
B2   B   0.221801252091038   0.610749035188268   0.624600921809436   1.0000000
B2   B   0.055106618279358   0.110929162117061   0.624701215759296   1.0000000
B2   B   0.555195093085219   0.610591320397621   0.624814248319015   1.0000000
B2   B   0.388597176213930   0.111296596396742   0.624725539109048   1.0000000
B2   B   0.887978904817886   0.610656119076086   0.624900713620734   1.0000000
B2   B   0.054920952324133   0.610759856327798   0.125415550701391   1.0000000
B2   B   0.721748068340017   0.110898262236432   0.624745304558114   1.0000000
B2   B   0.221849430601933   0.111107379825939   0.125169987243522   1.0000000
B2   B   0.388597176213930   0.610633913150186   0.125274460890779   1.0000000
B2   B   0.721218364268671   0.610602628581740   0.124849861108966   1.0000000
B2   B   0.555139329157579   0.111057216300350   0.124976362130673   1.0000000
B2   B   0.388597176213930   0.610633913150186   0.624725539109048   1.0000000
B2   B   0.888406681080618   0.110870007207178   0.125429449960193   1.0000000
B2   B   0.221734017458514   0.777533675395778   0.624442488459885   1.0000000
B2   B   0.055106618279358   0.277510789495500   0.624701215759296   1.0000000
B2   B   0.388527258059775   0.277907065127047   0.624240498927562   1.0000000
B2   B   0.555139329157579   0.777415446190695   0.625023637869385   1.0000000
B2   B   0.888182540889801   0.777431774582722   0.625030440460766   1.0000000
B2   B   0.721635932592355   0.277554052964663   0.625248535724091   1.0000000
B2   B   0.054920952324134   0.777494429329638   0.125415550701391   1.0000000
B2   B   0.388490194869248   0.777468766533019   0.125349105453197   1.0000000
B2   B   0.221856117176231   0.277594725254551   0.125105120685080   1.0000000
B2   B   0.721635932592355   0.777415212961079   0.124751464276352   1.0000000
B2   B   0.555195093085219   0.277937106021001   0.125185751681111   1.0000000
B2   B   0.888358498976961   0.277500142294267   0.125266785430562   1.0000000
B2   B   0.055043853009624   0.444113291377292   0.624673282419751   1.0000000
B2   B   0.221801252091038   0.944385550236156   0.624600921809436   1.0000000
B2   B   0.555130465985607   0.944231899659338   0.624738988318342   1.0000000
B2   B   0.388527258059775   0.443953526266364   0.624240498927562   1.0000000
B2   B   0.888358498976961   0.944191690016459   0.624733214569428   1.0000000
B2   B   0.055043853009624   0.944263894965663   0.125326717580463   1.0000000
B2   B   0.721218364268671   0.443949069020203   0.625150138890965   1.0000000
B2   B   0.388490194869248   0.944354761670163   0.125349105453197   1.0000000
B2   B   0.221849430601932   0.444075384109151   0.125169987243523   1.0000000
B2   B   0.221801252091038   0.610749035188268   0.125399078190370   1.0000000
B2   B   0.554899974122152   0.444116653727740   0.132108173323095   1.0000000
B2   B   0.721748068340017   0.944183139436813   0.125254695442334   1.0000000
B2   B   0.888182540889801   0.444084099640684   0.124969559539340   1.0000000
B2   B   0.054920952324133   0.610759856327798   0.624584449298572   1.0000000
B2   B   0.221849430601932   0.111107379825939   0.624830012756361   1.0000000
B2   B   0.721218364268671   0.610602628581740   0.625150138890965   1.0000000
B2   B   0.555139329157579   0.111057216300350   0.625023637869385   1.0000000
B2   B   0.888406681080618   0.110870007207178   0.624570550039796   1.0000000


