data_1
_audit_creation_method   'vasp2cif'
_cell_length_a    14.93631414619966
_cell_length_b    14.936314146199727
_cell_length_c    13.341276283792837
_cell_angle_alpha    90.0
_cell_angle_beta    90.0
_cell_angle_gamma    119.99999999999984

_symmetry_space_group_name_H-M    'P 1'
loop_
_atom_site_label
_atom_site_type_symbol
_atom_site_fract_x
_atom_site_fract_y
_atom_site_fract_z
_atom_site_occupancy
Sn2   Sn   0.485669030130651   0.409501181731989   0.375000000000000   1.0000000
N2   N   0.111272761424437   0.055612992976572   0.125049301392454   1.0000000
N2   N   0.611296771698790   0.555685343645489   0.124917593068144   1.0000000
N2   N   0.444615249132463   0.055617069229413   0.125047404829714   1.0000000
N2   N   0.944612026944383   0.555645921226679   0.125072863858853   1.0000000
N2   N   0.777957016783686   0.055645175058515   0.124868502586203   1.0000000
N2   N   0.111283799446968   0.722308566390152   0.625015966145869   1.0000000
N2   N   0.444615249132463   0.722331513236399   0.624952595170293   1.0000000
N2   N   0.277920823281021   0.222273289122258   0.624703141093583   1.0000000
N2   N   0.777939225352476   0.722296036006166   0.624816874808387   1.0000000
N2   N   0.611271457459097   0.222287213956181   0.624837543172135   1.0000000
N2   N   0.944622156763549   0.222320485384678   0.625067012586066   1.0000000
N2   N   0.277953241542794   0.722323069401668   0.124941319783257   1.0000000
N2   N   0.111283634915214   0.222308484124264   0.125203518061324   1.0000000
N2   N   0.444614717566980   0.222284071996615   0.125410717180256   1.0000000
N2   N   0.611271457459097   0.722317576836257   0.125162456827872   1.0000000
N2   N   0.944612026944383   0.722299439051041   0.125072863858853   1.0000000
N2   N   0.777947102166454   0.222315202355269   0.124951537046903   1.0000000
N2   N   0.111280500690208   0.888955769500275   0.625026594549165   1.0000000
N2   N   0.444622353423254   0.888977843378292   0.625187396896957   1.0000000
N2   N   0.277920823281021   0.388980867492083   0.624703141093583   1.0000000
N2   N   0.611296771698790   0.388944761386637   0.625082406931864   1.0000000
N2   N   0.777947102166454   0.888965233144528   0.625048462953104   1.0000000
N2   N   0.944613734228218   0.388990084164672   0.625068583399701   1.0000000
N2   N   0.111272761424437   0.388993101781202   0.125049301392454   1.0000000
N2   N   0.277953241542794   0.888963505474440   0.124941319783257   1.0000000
N2   N   0.611284280466571   0.888983297422384   0.124896095787729   1.0000000
N2   N   0.444577704903912   0.388955519118613   0.126895560611086   1.0000000
N2   N   0.944613734228218   0.888956983396861   0.124931416600292   1.0000000
N2   N   0.777939225352476   0.388976522679639   0.125183125191612   1.0000000
N2   N   0.277944702292779   0.555666875914957   0.624813564310795   1.0000000
N2   N   0.111272761424437   0.055612992976572   0.624950698607545   1.0000000
N2   N   0.611296771698790   0.555685343645489   0.625082406931864   1.0000000
N2   N   0.444615249132463   0.055617069229413   0.624952595170293   1.0000000
N2   N   0.944612026944383   0.555645921226679   0.624927136141133   1.0000000
N2   N   0.111280500690208   0.555658064523250   0.124973405450828   1.0000000
N2   N   0.777957016783686   0.055645175058515   0.625131497413790   1.0000000
N2   N   0.277944702292779   0.055611159711165   0.125186435689206   1.0000000
N2   N   0.444614717566980   0.555663978903686   0.125410717180256   1.0000000
N2   N   0.777939925626433   0.555636629479893   0.125281880405733   1.0000000
N2   N   0.611284280466571   0.055634316377502   0.124896095787729   1.0000000
N2   N   0.444614717566980   0.555663978903686   0.624589282819744   1.0000000
N2   N   0.944622156763549   0.055635004712215   0.124932987413921   1.0000000
N2   N   0.277953241542794   0.722323069401668   0.625058680216757   1.0000000
N2   N   0.111283634915214   0.222308484124264   0.624796481938691   1.0000000
N2   N   0.444614717566980   0.222284071996615   0.624589282819744   1.0000000
N2   N   0.611271457459097   0.722317576836257   0.624837543172135   1.0000000
N2   N   0.944612026944383   0.722299439051041   0.624927136141133   1.0000000
N2   N   0.777947102166454   0.222315202355269   0.625048462953104   1.0000000
N2   N   0.111283799446968   0.722308566390152   0.124984033854124   1.0000000
N2   N   0.444615249132463   0.722331513236399   0.125047404829714   1.0000000
N2   N   0.277920823281021   0.222273289122258   0.125296858906431   1.0000000
N2   N   0.777939225352476   0.722296036006166   0.125183125191612   1.0000000
N2   N   0.611271457459097   0.222287213956181   0.125162456827872   1.0000000
N2   N   0.944622156763549   0.222320485384678   0.124932987413921   1.0000000
N2   N   0.111272761424437   0.388993101781202   0.624950698607545   1.0000000
N2   N   0.277953241542794   0.888963505474440   0.625058680216757   1.0000000
N2   N   0.611284280466571   0.888983297422384   0.625103904212271   1.0000000
N2   N   0.444577704903912   0.388955519118613   0.623104439388908   1.0000000
N2   N   0.944613734228218   0.888956983396861   0.625068583399701   1.0000000
N2   N   0.111280500690208   0.888955769500275   0.124973405450828   1.0000000
N2   N   0.777939225352476   0.388976522679639   0.624816874808387   1.0000000
N2   N   0.444622353423254   0.888977843378292   0.124812603103043   1.0000000
N2   N   0.277920823281021   0.388980867492083   0.125296858906431   1.0000000
N2   N   0.277944702292779   0.555666875914964   0.125186435689206   1.0000000
N2   N   0.611296771698790   0.388944761386637   0.124917593068144   1.0000000
N2   N   0.777947102166454   0.888965233144528   0.124951537046903   1.0000000
N2   N   0.944613734228218   0.388990084164672   0.124931416600292   1.0000000
N2   N   0.111280500690208   0.555658064523250   0.625026594549165   1.0000000
N2   N   0.277944702292779   0.055611159711165   0.624813564310795   1.0000000
N2   N   0.777939925626433   0.555636629479893   0.624718119594252   1.0000000
N2   N   0.611284280466571   0.055634316377502   0.625103904212271   1.0000000
N2   N   0.944622156763549   0.055635004712215   0.625067012586066   1.0000000
N2   N   0.055615757993420   0.111221173210727   0.375000000000000   1.0000000
N2   N   0.553497904389163   0.615383327202634   0.375000000000000   1.0000000
N2   N   0.386169110535824   0.103653533586781   0.375000000000000   1.0000000
N2   N   0.887616309011563   0.610474821172468   0.375000000000000   1.0000000
N2   N   0.722216029562555   0.110587723727233   0.375000000000000   1.0000000
N2   N   0.055498572660849   0.777751371511668   0.875000000000000   1.0000000
N2   N   0.388843117347921   0.777753892166216   0.875000000000000   1.0000000
N2   N   0.222159057681404   0.277746195507373   0.875000000000000   1.0000000
N2   N   0.722168400414738   0.777751797512794   0.875000000000000   1.0000000
N2   N   0.555497174448049   0.277748793215187   0.875000000000000   1.0000000
N2   N   0.888834982096063   0.277749951078294   0.875000000000000   1.0000000
N2   N   0.219883621888676   0.776608477610985   0.375000000000000   1.0000000
N2   N   0.055615757993420   0.277727918116035   0.375000000000000   1.0000000
N2   N   0.385040452903032   0.264051004196920   0.375000000000000   1.0000000
N2   N   0.554665132117009   0.779861277119623   0.375000000000000   1.0000000
N2   N   0.888285656695550   0.777856069687900   0.375000000000000   1.0000000
N2   N   0.722110108585573   0.276467973115966   0.375000000000000   1.0000000
N2   N   0.055496607160386   0.944418405186172   0.875000000000000   1.0000000
N2   N   0.388843117347921   0.944422558515055   0.875000000000000   1.0000000
N2   N   0.222161262857092   0.444410042505636   0.875000000000000   1.0000000
N2   N   0.555490122389239   0.444411727861288   0.875000000000000   1.0000000
N2   N   0.722170247374123   0.944418831898007   0.875000000000000   1.0000000
N2   N   0.888833182110196   0.444415071204223   0.875000000000000   1.0000000
N2   N   0.054161688756411   0.444127019744911   0.375000000000000   1.0000000
N2   N   0.219682303096191   0.941736592886497   0.375000000000000   1.0000000
N2   N   0.554833866573108   0.944083599953229   0.375000000000000   1.0000000
N2   N   0.385040452903039   0.454322782039469   0.375000000000000   1.0000000
N2   N   0.888787166298288   0.944851763828816   0.375000000000000   1.0000000
N2   N   0.722925531462707   0.444360486373980   0.375000000000000   1.0000000
N2   N   0.222167690187137   0.611079697508705   0.875000000000000   1.0000000
N2   N   0.055494667309920   0.111082171172709   0.875000000000000   1.0000000
N2   N   0.555497174448049   0.611081714566184   0.875000000000000   1.0000000
N2   N   0.388835767518697   0.111087896450279   0.875000000000000   1.0000000
N2   N   0.888829978896940   0.611081656115149   0.875000000000000   1.0000000
N2   N   0.053549607583712   0.610353413609703   0.375000000000000   1.0000000
N2   N   0.722170247374123   0.111084748809452   0.875000000000000   1.0000000
N2   N   0.220075527259553   0.108152527781547   0.375000000000000   1.0000000
N2   N   0.386169110535824   0.615848910282401   0.375000000000000   1.0000000
N2   N   0.722925531462707   0.611898378422072   0.375000000000000   1.0000000
N2   N   0.554665132117009   0.108137188330717   0.375000000000000   1.0000000
N2   N   0.388835767518697   0.611081204401754   0.875000000000000   1.0000000
N2   N   0.889031416677479   0.111182375005410   0.375000000000000   1.0000000
N2   N   0.222171405521267   0.777752369427310   0.875000000000000   1.0000000
N2   N   0.055494667309920   0.277745829470548   0.875000000000000   1.0000000
N2   N   0.388833117306775   0.277753971370394   0.875000000000000   1.0000000
N2   N   0.555504744333027   0.777752575731678   0.875000000000000   1.0000000
N2   N   0.888833182110196   0.777751444239300   0.875000000000000   1.0000000
N2   N   0.722168400414738   0.277749936235279   0.875000000000000   1.0000000
N2   N   0.053549607583712   0.776529527307344   0.375000000000000   1.0000000
N2   N   0.386986085611543   0.778589195017647   0.375000000000000   1.0000000
N2   N   0.223331588882829   0.278332461108090   0.375000000000000   1.0000000
N2   N   0.722110108585573   0.778975468802957   0.375000000000000   1.0000000
N2   N   0.553497904389163   0.271447910519822   0.375000000000000   1.0000000
N2   N   0.888787166298288   0.277268735802806   0.375000000000000   1.0000000
N2   N   0.055496607160386   0.444411535307544   0.875000000000000   1.0000000
N2   N   0.222167690187137   0.944421326011750   0.875000000000000   1.0000000
N2   N   0.555508490455912   0.944420911894627   0.875000000000000   1.0000000
N2   N   0.388833117306775   0.444412479269746   0.875000000000000   1.0000000
N2   N   0.888834982096063   0.944418364351090   0.875000000000000   1.0000000
N2   N   0.054161688756411   0.943368002344813   0.375000000000000   1.0000000
N2   N   0.722163542035987   0.444415119227790   0.875000000000000   1.0000000
N2   N   0.386986085611543   0.941730223927209   0.375000000000000   1.0000000
N2   N   0.220075527259553   0.445256332811342   0.375000000000000   1.0000000
N2   N   0.219682303096191   0.611279043543040   0.375000000000000   1.0000000
N2   N   0.722216029562555   0.944961639168644   0.375000000000000   1.0000000
N2   N   0.888285656695550   0.443762920340987   0.375000000000000   1.0000000
N2   N   0.055498572660849   0.611080534482495   0.875000000000000   1.0000000
N2   N   0.222161262857092   0.111084553684792   0.875000000000000   1.0000000
N2   N   0.722163542035987   0.611081756141518   0.875000000000000   1.0000000
N2   N   0.555504744333027   0.111085501934685   0.875000000000000   1.0000000
N2   N   0.888834915857399   0.111084124595371   0.875000000000000   1.0000000
B2   B   0.109552590866388   0.054163093807244   0.375000000000000   1.0000000
B2   B   0.617090465122157   0.570979119887419   0.375000000000000   1.0000000
B2   B   0.443280727945007   0.051079918118421   0.375000000000000   1.0000000
B2   B   0.943322402722465   0.554829000924274   0.375000000000000   1.0000000
B2   B   0.778195475304402   0.055764404318873   0.375000000000000   1.0000000
B2   B   0.111067340382251   0.722200336857793   0.875000000000000   1.0000000
B2   B   0.444385588768271   0.722218202363735   0.875000000000000   1.0000000
B2   B   0.277648802981528   0.222148346590625   0.875000000000000   1.0000000
B2   B   0.777762525528936   0.722249341958897   0.875000000000000   1.0000000
B2   B   0.611075265657426   0.222158315711805   0.875000000000000   1.0000000
B2   B   0.944385243067777   0.222183694705583   0.875000000000000   1.0000000
B2   B   0.275760866217289   0.722063607515482   0.375000000000000   1.0000000
B2   B   0.111626733427329   0.222480033380332   0.375000000000000   1.0000000
B2   B   0.440912739812318   0.211642145471803   0.375000000000000   1.0000000
B2   B   0.611517254168945   0.727049014209922   0.375000000000000   1.0000000
B2   B   0.943322402722465   0.721826735131521   0.375000000000000   1.0000000
B2   B   0.778180253040061   0.221216223449401   0.375000000000000   1.0000000
B2   B   0.111053358323140   0.888865862141327   0.875000000000000   1.0000000
B2   B   0.444396548831875   0.888864941082597   0.875000000000000   1.0000000
B2   B   0.277648802981528   0.388833789724230   0.875000000000000   1.0000000
B2   B   0.611075857823857   0.388838984807555   0.875000000000000   1.0000000
B2   B   0.777748529396280   0.888904046838017   0.875000000000000   1.0000000
B2   B   0.944404223965888   0.388848408753640   0.875000000000000   1.0000000
B2   B   0.109552590866388   0.388722830392474   0.375000000000000   1.0000000
B2   B   0.275760866217289   0.887030592035143   0.375000000000000   1.0000000
B2   B   0.611271218927253   0.890329925799267   0.375000000000000   1.0000000
B2   B   0.943831081311835   0.889099649343902   0.375000000000000   1.0000000
B2   B   0.778661895828334   0.387262956377493   0.375000000000000   1.0000000
B2   B   0.277690277793771   0.555524999549252   0.875000000000000   1.0000000
B2   B   0.111023553045360   0.055514965378644   0.875000000000000   1.0000000
B2   B   0.611075857823857   0.555570206349645   0.875000000000000   1.0000000
B2   B   0.444385588768271   0.055500719737901   0.875000000000000   1.0000000
B2   B   0.944421313106993   0.555533763676063   0.875000000000000   1.0000000
B2   B   0.109050468774072   0.555059414125780   0.375000000000000   1.0000000
B2   B   0.777740893968093   0.055537113650725   0.875000000000000   1.0000000
B2   B   0.275016389629548   0.051828504909399   0.375000000000000   1.0000000
B2   B   0.440912739812318   0.562603927673872   0.375000000000000   1.0000000
B2   B   0.778167812230355   0.555750572781838   0.375000000000000   1.0000000
B2   B   0.611271218927253   0.054274626461301   0.375000000000000   1.0000000
B2   B   0.444364612791690   0.555554841422731   0.875000000000000   1.0000000
B2   B   0.944689306567208   0.056007296193923   0.375000000000000   1.0000000
B2   B   0.277718742255825   0.722197394856464   0.875000000000000   1.0000000
B2   B   0.111006090930542   0.222169712131932   0.875000000000000   1.0000000
B2   B   0.444364612791690   0.222143104702281   0.875000000000000   1.0000000
B2   B   0.611075265657426   0.722250283278949   0.875000000000000   1.0000000
B2   B   0.944421313106993   0.722220882764260   0.875000000000000   1.0000000
B2   B   0.777748529396280   0.222177815891607   0.875000000000000   1.0000000
B2   B   0.109142052631412   0.721237692982374   0.375000000000000   1.0000000
B2   B   0.443280727945007   0.725534143159930   0.375000000000000   1.0000000
B2   B   0.275701494079333   0.218921890509590   0.375000000000000   1.0000000
B2   B   0.778661895828334   0.724732272784175   0.375000000000000   1.0000000
B2   B   0.611517254168945   0.217801573292373   0.375000000000000   1.0000000
B2   B   0.944689306567208   0.222015343706628   0.375000000000000   1.0000000
B2   B   0.111023553045360   0.388841921000045   0.875000000000000   1.0000000
B2   B   0.277718742255825   0.888854680732668   0.875000000000000   1.0000000
B2   B   0.611074407319094   0.888888553531148   0.875000000000000   1.0000000
B2   B   0.444345042460949   0.388839187897139   0.875000000000000   1.0000000
B2   B   0.944404223965888   0.888889148545568   0.875000000000000   1.0000000
B2   B   0.109050468774072   0.887324387981613   0.375000000000000   1.0000000
B2   B   0.777762525528936   0.388846516903390   0.875000000000000   1.0000000
B2   B   0.443555310365967   0.888444321849647   0.375000000000000   1.0000000
B2   B   0.275701494079333   0.390112936903072   0.375000000000000   1.0000000
B2   B   0.275016389629548   0.556521218053485   0.375000000000000   1.0000000
B2   B   0.617090465122157   0.379444678568104   0.375000000000000   1.0000000
B2   B   0.778180253040061   0.890297362923983   0.375000000000000   1.0000000
B2   B   0.943831081311835   0.388064765301254   0.375000000000000   1.0000000
B2   B   0.111053358323140   0.555520829515161   0.875000000000000   1.0000000
B2   B   0.277690277793771   0.055498611577848   0.875000000000000   1.0000000
B2   B   0.777767458293064   0.555550395813192   0.875000000000000   1.0000000
B2   B   0.611074407319094   0.055519187121289   0.875000000000000   1.0000000
B2   B   0.944385243067777   0.055534881695560   0.875000000000000   1.0000000
B2   B   0.055706573079199   0.111168009353450   0.124917140128975   1.0000000
B2   B   0.555693140392925   0.611379217750181   0.124619573294048   1.0000000
B2   B   0.388940901124710   0.110959847351558   0.124961204417692   1.0000000
B2   B   0.889224883894385   0.611279108613867   0.124819262951716   1.0000000
B2   B   0.722408367341238   0.111165519948710   0.124698947091621   1.0000000
B2   B   0.055805695221137   0.777893755428242   0.625210558734659   1.0000000
B2   B   0.389016760688616   0.777904585854422   0.625283040189434   1.0000000
B2   B   0.222250503824842   0.277791918579093   0.624893689667744   1.0000000
B2   B   0.722446327859369   0.777985860790114   0.625247805441018   1.0000000
B2   B   0.555693140392925   0.277647255976070   0.625380426705943   1.0000000
B2   B   0.889106546579134   0.277864476624227   0.625275675164774   1.0000000
B2   B   0.222399866017809   0.777866599675585   0.124758431620993   1.0000000
B2   B   0.055706573079199   0.277871897059091   0.124917140128975   1.0000000
B2   B   0.388749378340560   0.277442359347679   0.125332716044515   1.0000000
B2   B   0.555689604117583   0.777968203617822   0.124780817025840   1.0000000
B2   B   0.889180245507356   0.777952745103362   0.124772318172121   1.0000000
B2   B   0.722446327859369   0.277793800402598   0.124752194558981   1.0000000
B2   B   0.055749714445724   0.944514821731263   0.625207955700312   1.0000000
B2   B   0.389016760688616   0.944445508167524   0.625283040189434   1.0000000
B2   B   0.222282565524569   0.444580820856781   0.624998579830011   1.0000000
B2   B   0.555939993779044   0.444636663556186   0.625034239778400   1.0000000
B2   B   0.722408367341238   0.944576180725850   0.625301052908386   1.0000000
B2   B   0.889180245507356   0.444560833737324   0.625227681827878   1.0000000
B2   B   0.055749714445724   0.444568226047796   0.124792044299690   1.0000000
B2   B   0.222366310005367   0.944446071374258   0.124854735212235   1.0000000
B2   B   0.555706543771648   0.944519938552471   0.124653664772554   1.0000000
B2   B   0.388749378340560   0.444640352326231   0.125332716044515   1.0000000
B2   B   0.889106546579134   0.944575403288256   0.124724324835226   1.0000000
B2   B   0.722580806258344   0.444565907129291   0.124565294528240   1.0000000
B2   B   0.222366310005367   0.611253571964423   0.625145264787749   1.0000000
B2   B   0.055706573079199   0.111168009353450   0.625082859871025   1.0000000
B2   B   0.555693140392925   0.611379217750181   0.625380426705943   1.0000000
B2   B   0.388940901124710   0.110959847351558   0.625038795582322   1.0000000
B2   B   0.889224883894385   0.611279108613867   0.625180737048270   1.0000000
B2   B   0.055805695221137   0.611245273126215   0.124789441265355   1.0000000
B2   B   0.722408367341238   0.111165519948710   0.625301052908386   1.0000000
B2   B   0.222282565524569   0.111035078001116   0.125001420169982   1.0000000
B2   B   0.388940901124710   0.611314387106517   0.124961204417692   1.0000000
B2   B   0.722580806258344   0.611348232462423   0.124565294528240   1.0000000
B2   B   0.555689604117583   0.111054733833104   0.124780817025840   1.0000000
B2   B   0.388940901124710   0.611314387106517   0.625038795582322   1.0000000
B2   B   0.889084744596880   0.111209038965108   0.124747503294558   1.0000000
B2   B   0.222399866017809   0.777866599675585   0.625241568378999   1.0000000
B2   B   0.055706573079199   0.277871897059091   0.625082859871025   1.0000000
B2   B   0.388749378340560   0.277442359347679   0.624667283955499   1.0000000
B2   B   0.555689604117583   0.777968203617822   0.625219182974152   1.0000000
B2   B   0.889180245507356   0.777952745103362   0.625227681827878   1.0000000
B2   B   0.722446327859369   0.277793800402598   0.625247805441018   1.0000000
B2   B   0.055805695221137   0.777893755428242   0.124789441265355   1.0000000
B2   B   0.389016760688616   0.777904585854422   0.124716959810581   1.0000000
B2   B   0.222250503824842   0.277791918579093   0.125106310332243   1.0000000
B2   B   0.722446327859369   0.777985860790114   0.124752194558981   1.0000000
B2   B   0.555693140392925   0.277647255976070   0.124619573294048   1.0000000
B2   B   0.889106546579134   0.277864476624227   0.124724324835226   1.0000000
B2   B   0.055749714445724   0.444568226047796   0.625207955700312   1.0000000
B2   B   0.222366310005367   0.944446071374258   0.625145264787749   1.0000000
B2   B   0.555706543771648   0.944519938552471   0.625346335227453   1.0000000
B2   B   0.388749378340560   0.444640352326231   0.624667283955499   1.0000000
B2   B   0.889106546579134   0.944575403288256   0.625275675164774   1.0000000
B2   B   0.055749714445724   0.944514821731263   0.124792044299690   1.0000000
B2   B   0.722580806258344   0.444565907129291   0.625434705471776   1.0000000
B2   B   0.389016760688616   0.944445508167524   0.124716959810581   1.0000000
B2   B   0.222282565524569   0.444580820856788   0.125001420169982   1.0000000
B2   B   0.222366310005367   0.611253571964423   0.124854735212235   1.0000000
B2   B   0.555939993779044   0.444636663556186   0.124965760221600   1.0000000
B2   B   0.722408367341238   0.944576180725850   0.124698947091621   1.0000000
B2   B   0.889180245507356   0.444560833737324   0.124772318172121   1.0000000
B2   B   0.055805695221137   0.611245273126215   0.625210558734659   1.0000000
B2   B   0.222282565524569   0.111035078001116   0.624998579830011   1.0000000
B2   B   0.722580806258344   0.611348232462423   0.625434705471776   1.0000000
B2   B   0.555689604117583   0.111054733833104   0.625219182974152   1.0000000
B2   B   0.889084744596880   0.111209038965108   0.625252496705443   1.0000000


