data_1
_audit_creation_method   'vasp2cif'
_cell_length_a    14.93631414619966
_cell_length_b    14.936314146199727
_cell_length_c    13.341276283792837
_cell_angle_alpha    90.0
_cell_angle_beta    90.0
_cell_angle_gamma    119.99999999999984

_symmetry_space_group_name_H-M    'P 1'
loop_
_atom_site_label
_atom_site_type_symbol
_atom_site_fract_x
_atom_site_fract_y
_atom_site_fract_z
_atom_site_occupancy
C2   C   0.444444444444443   0.388888888888886   0.375000000000000   1.0000000
N2   N   0.111119799298477   0.055551703790694   0.124994608580361   1.0000000
N2   N   0.611102568990876   0.555538829963960   0.125229023699030   1.0000000
N2   N   0.444431904492216   0.055551703790694   0.124994608580361   1.0000000
N2   N   0.944450560569810   0.555562270503879   0.124950588132275   1.0000000
N2   N   0.777777777777779   0.055555555555557   0.124948815581818   1.0000000
N2   N   0.111111111111114   0.722222222222221   0.625060379915114   1.0000000
N2   N   0.444431904492216   0.722213534034858   0.625005391419640   1.0000000
N2   N   0.277794503369376   0.222230764342460   0.624770976300970   1.0000000
N2   N   0.777781629542642   0.722213534034858   0.625005391419640   1.0000000
N2   N   0.611102410053134   0.222230923280202   0.624969393721755   1.0000000
N2   N   0.944455914471566   0.222233860030974   0.625043850594471   1.0000000
N2   N   0.277771062829456   0.722221623399267   0.124950588132275   1.0000000
N2   N   0.111128513227075   0.222230923280202   0.125030606278245   1.0000000
N2   N   0.444436260973084   0.222230764342460   0.125229023699030   1.0000000
N2   N   0.611102410053134   0.722204820106261   0.125030606278245   1.0000000
N2   N   0.944450560569810   0.722221623399267   0.124950588132275   1.0000000
N2   N   0.777777945559407   0.222233860030974   0.124956149405530   1.0000000
N2   N   0.111111709934069   0.888882772763518   0.625049411867725   1.0000000
N2   N   0.444432131607243   0.888882732470286   0.625051268111369   1.0000000
N2   N   0.277794503369376   0.388897072360245   0.624770976300970   1.0000000
N2   N   0.611102568990876   0.388897072360245   0.624770976300970   1.0000000
N2   N   0.777777945559407   0.888877418861762   0.625043850594471   1.0000000
N2   N   0.944450600863043   0.388901201726086   0.625051268111369   1.0000000
N2   N   0.111119799298477   0.388901428841113   0.124994608580361   1.0000000
N2   N   0.277771062829456   0.888882772763518   0.124950588132275   1.0000000
N2   N   0.611099473302362   0.888877418861762   0.124956149405530   1.0000000
N2   N   0.444444444444443   0.388888888888886   0.125312166671397   1.0000000
N2   N   0.944450600863043   0.888882732470286   0.124948731888631   1.0000000
N2   N   0.777781629542642   0.388901428841113   0.124994608580361   1.0000000
N2   N   0.277774701605246   0.555558631728090   0.624971930649989   1.0000000
N2   N   0.111119799298477   0.055551703790694   0.625005391419640   1.0000000
N2   N   0.611102568990876   0.555538829963960   0.624770976300970   1.0000000
N2   N   0.444431904492216   0.055551703790694   0.625005391419640   1.0000000
N2   N   0.944450560569810   0.555562270503879   0.625049411867725   1.0000000
N2   N   0.111111709934069   0.555562270503879   0.124950588132275   1.0000000
N2   N   0.777777777777779   0.055555555555557   0.625051184418182   1.0000000
N2   N   0.277774701605246   0.055549403210491   0.125028069350012   1.0000000
N2   N   0.444436260973084   0.555538829963960   0.125229023699030   1.0000000
N2   N   0.777783930122845   0.555558631728090   0.125028069350012   1.0000000
N2   N   0.611099473302362   0.055555387773929   0.124956149405530   1.0000000
N2   N   0.444436260973084   0.555538829963960   0.624770976300970   1.0000000
N2   N   0.944455914471566   0.055555387773929   0.124956149405530   1.0000000
N2   N   0.277771062829456   0.722221623399267   0.625049411867725   1.0000000
N2   N   0.111128513227075   0.222230923280202   0.624969393721755   1.0000000
N2   N   0.444436260973084   0.222230764342460   0.624770976300970   1.0000000
N2   N   0.611102410053134   0.722204820106261   0.624969393721755   1.0000000
N2   N   0.944450560569810   0.722221623399267   0.625049411867725   1.0000000
N2   N   0.777777945559407   0.222233860030974   0.625043850594471   1.0000000
N2   N   0.111111111111114   0.722222222222221   0.124939620084886   1.0000000
N2   N   0.444431904492216   0.722213534034858   0.124994608580361   1.0000000
N2   N   0.277794503369376   0.222230764342460   0.125229023699030   1.0000000
N2   N   0.777781629542642   0.722213534034858   0.124994608580361   1.0000000
N2   N   0.611102410053134   0.222230923280202   0.125030606278245   1.0000000
N2   N   0.944455914471566   0.222233860030974   0.124956149405530   1.0000000
N2   N   0.111119799298477   0.388901428841113   0.625005391419640   1.0000000
N2   N   0.277771062829456   0.888882772763518   0.625049411867725   1.0000000
N2   N   0.611099473302362   0.888877418861762   0.625043850594471   1.0000000
N2   N   0.444444444444443   0.388888888888886   0.624687833328603   1.0000000
N2   N   0.944450600863043   0.888882732470286   0.625051268111369   1.0000000
N2   N   0.111111709934069   0.888882772763518   0.124950588132275   1.0000000
N2   N   0.777781629542642   0.388901428841113   0.625005391419640   1.0000000
N2   N   0.444432131607243   0.888882732470286   0.124948731888631   1.0000000
N2   N   0.277794503369376   0.388897072360245   0.125229023699030   1.0000000
N2   N   0.277774701605246   0.555558631728090   0.125028069350012   1.0000000
N2   N   0.611102568990876   0.388897072360245   0.125229023699030   1.0000000
N2   N   0.777777945559407   0.888877418861762   0.124956149405530   1.0000000
N2   N   0.944450600863043   0.388901201726086   0.124948731888631   1.0000000
N2   N   0.111111709934069   0.555562270503879   0.625049411867725   1.0000000
N2   N   0.277774701605246   0.055549403210491   0.624971930649989   1.0000000
N2   N   0.777783930122845   0.555558631728090   0.624971930649989   1.0000000
N2   N   0.611099473302362   0.055555387773929   0.625043850594471   1.0000000
N2   N   0.944455914471566   0.055555387773929   0.625043850594471   1.0000000
N2   N   0.055718385598742   0.111243231098415   0.375000000000000   1.0000000
N2   N   0.555529989510958   0.611059979021915   0.375000000000000   1.0000000
N2   N   0.389312099899664   0.113023490274980   0.375000000000000   1.0000000
N2   N   0.888115577842119   0.610724455587731   0.375000000000000   1.0000000
N2   N   0.722195716289188   0.111137617044148   0.375000000000000   1.0000000
N2   N   0.055554607405447   0.777778725927889   0.875000000000000   1.0000000
N2   N   0.388892490567055   0.777780393452887   0.875000000000000   1.0000000
N2   N   0.222220375214207   0.277776854273772   0.875000000000000   1.0000000
N2   N   0.722223283935044   0.777781569980506   0.875000000000000   1.0000000
N2   N   0.555556479059564   0.277776854273772   0.875000000000000   1.0000000
N2   N   0.888888213758411   0.277776427516830   0.875000000000000   1.0000000
N2   N   0.222382782035543   0.777858057684439   0.375000000000000   1.0000000
N2   N   0.055718385598742   0.277808487833663   0.375000000000000   1.0000000
N2   N   0.391871065530825   0.283742131061658   0.375000000000000   1.0000000
N2   N   0.555524845499674   0.777614947734594   0.375000000000000   1.0000000
N2   N   0.888362801623161   0.777398211862824   0.375000000000000   1.0000000
N2   N   0.722090102234921   0.277808487833663   0.375000000000000   1.0000000
N2   N   0.055552939880448   0.944445430447503   0.875000000000000   1.0000000
N2   N   0.388892490567055   0.944445430447503   0.875000000000000   1.0000000
N2   N   0.222221108486208   0.444441351210210   0.875000000000000   1.0000000
N2   N   0.555554109616283   0.444443721474806   0.875000000000000   1.0000000
N2   N   0.722222884793951   0.944445769587903   0.875000000000000   1.0000000
N2   N   0.888887902885825   0.444440842766273   0.875000000000000   1.0000000
N2   N   0.055935121470512   0.444297923093672   0.375000000000000   1.0000000
N2   N   0.222608877745605   0.945217755491210   0.375000000000000   1.0000000
N2   N   0.555506491184653   0.944419912258991   0.375000000000000   1.0000000
N2   N   0.391871065530825   0.441462267802503   0.375000000000000   1.0000000
N2   N   0.888913421074338   0.944419912258991   0.375000000000000   1.0000000
N2   N   0.720309843058356   0.444021233433664   0.375000000000000   1.0000000
N2   N   0.222222868321490   0.611110465011846   0.875000000000000   1.0000000
N2   N   0.055551763352830   0.111110049398292   0.875000000000000   1.0000000
N2   N   0.555556479059564   0.611112958119128   0.875000000000000   1.0000000
N2   N   0.388891982123118   0.111113090609333   0.875000000000000   1.0000000
N2   N   0.888887596690348   0.611110465011846   0.875000000000000   1.0000000
N2   N   0.055475275648896   0.610950551297792   0.375000000000000   1.0000000
N2   N   0.722222884793951   0.111110448539384   0.875000000000000   1.0000000
N2   N   0.223711390375308   0.113023490274980   0.375000000000000   1.0000000
N2   N   0.389312099899664   0.609621942958027   0.375000000000000   1.0000000
N2   N   0.720309843058356   0.609621942958027   0.375000000000000   1.0000000
N2   N   0.555524845499674   0.111243231098415   0.375000000000000   1.0000000
N2   N   0.388891982123118   0.611112224847128   0.875000000000000   1.0000000
N2   N   0.888941900754954   0.111137617044148   0.375000000000000   1.0000000
N2   N   0.222224118522442   0.777778725927889   0.875000000000000   1.0000000
N2   N   0.055551763352830   0.277775047287874   0.875000000000000   1.0000000
N2   N   0.388889611858523   0.277779223717052   0.875000000000000   1.0000000
N2   N   0.555558286045462   0.777781569980506   0.875000000000000   1.0000000
N2   N   0.888887902885825   0.777780393452887   0.875000000000000   1.0000000
N2   N   0.722223283935044   0.277775047287874   0.875000000000000   1.0000000
N2   N   0.055475275648896   0.777858057684439   0.375000000000000   1.0000000
N2   N   0.389035410239656   0.777398211862824   0.375000000000000   1.0000000
N2   N   0.222273354311420   0.277803343822378   0.375000000000000   1.0000000
N2   N   0.722090102234921   0.777614947734594   0.375000000000000   1.0000000
N2   N   0.555529989510958   0.277803343822378   0.375000000000000   1.0000000
N2   N   0.888913421074338   0.277826842148682   0.375000000000000   1.0000000
N2   N   0.055552939880448   0.444440842766273   0.875000000000000   1.0000000
N2   N   0.222222868321490   0.944445736642981   0.875000000000000   1.0000000
N2   N   0.555556905816506   0.944445119574917   0.875000000000000   1.0000000
N2   N   0.388889611858523   0.444443721474806   0.875000000000000   1.0000000
N2   N   0.888888213758411   0.944445119574917   0.875000000000000   1.0000000
N2   N   0.055935121470512   0.944970531710168   0.375000000000000   1.0000000
N2   N   0.722220242724002   0.444441351210210   0.875000000000000   1.0000000
N2   N   0.389035410239656   0.944970531710168   0.375000000000000   1.0000000
N2   N   0.223711390375308   0.444021233433664   0.375000000000000   1.0000000
N2   N   0.222608877745605   0.610724455587731   0.375000000000000   1.0000000
N2   N   0.549591202271678   0.441462267802503   0.375000000000000   1.0000000
N2   N   0.722195716289188   0.944391432578375   0.375000000000000   1.0000000
N2   N   0.888362801623161   0.444297923093672   0.375000000000000   1.0000000
N2   N   0.055554607405447   0.611109214810894   0.875000000000000   1.0000000
N2   N   0.222221108486208   0.111113090609333   0.875000000000000   1.0000000
N2   N   0.722220242724002   0.611112224847128   0.875000000000000   1.0000000
N2   N   0.555558286045462   0.111110049398292   0.875000000000000   1.0000000
N2   N   0.888887563745426   0.111110448539384   0.875000000000000   1.0000000
B2   B   0.111441611074503   0.056054014464138   0.375000000000000   1.0000000
B2   B   0.610013029345543   0.555927084860370   0.375000000000000   1.0000000
B2   B   0.444612403389635   0.056054014464138   0.375000000000000   1.0000000
B2   B   0.944249924195181   0.555453651840858   0.375000000000000   1.0000000
B2   B   0.777777777777779   0.055555555555557   0.375000000000000   1.0000000
B2   B   0.111111111111114   0.722222222222221   0.875000000000000   1.0000000
B2   B   0.444451504885884   0.722246987357688   0.875000000000000   1.0000000
B2   B   0.277749526672203   0.222198704707398   0.875000000000000   1.0000000
B2   B   0.777795482471805   0.722246987357688   0.875000000000000   1.0000000
B2   B   0.611128882958290   0.222204450375046   0.875000000000000   1.0000000
B2   B   0.944427199179181   0.222212233925618   0.875000000000000   1.0000000
B2   B   0.277879681492478   0.722129605687659   0.375000000000000   1.0000000
B2   B   0.110145137694182   0.221739235513755   0.375000000000000   1.0000000
B2   B   0.445914055514828   0.223320303987793   0.375000000000000   1.0000000
B2   B   0.611594097819581   0.723188195639154   0.375000000000000   1.0000000
B2   B   0.944249924195181   0.722129605687659   0.375000000000000   1.0000000
B2   B   0.777893271270687   0.222146282469323   0.375000000000000   1.0000000
B2   B   0.111103415962466   0.888880544001347   0.875000000000000   1.0000000
B2   B   0.444450281459427   0.888891807396378   0.875000000000000   1.0000000
B2   B   0.277749526672203   0.388884155298134   0.875000000000000   1.0000000
B2   B   0.611134628625938   0.388884155298134   0.875000000000000   1.0000000
B2   B   0.777785034746438   0.888906134154148   0.875000000000000   1.0000000
B2   B   0.944441525936951   0.388883051873901   0.875000000000000   1.0000000
B2   B   0.111441611074503   0.388720929943694   0.375000000000000   1.0000000
B2   B   0.277879681492478   0.889083409138148   0.375000000000000   1.0000000
B2   B   0.611187050864012   0.889080322134693   0.375000000000000   1.0000000
B2   B   0.944434046635050   0.888899286698278   0.375000000000000   1.0000000
B2   B   0.777279318869198   0.388720929943694   0.375000000000000   1.0000000
B2   B   0.277766484861597   0.555566848471738   0.875000000000000   1.0000000
B2   B   0.111086345975647   0.055537850861531   0.875000000000000   1.0000000
B2   B   0.611134628625938   0.555583806661133   0.875000000000000   1.0000000
B2   B   0.444451504885884   0.055537850861531   0.875000000000000   1.0000000
B2   B   0.944452789331981   0.555556205294447   0.875000000000000   1.0000000
B2   B   0.111203727645677   0.555453651840858   0.375000000000000   1.0000000
B2   B   0.777777777777779   0.055555555555557   0.875000000000000   1.0000000
B2   B   0.278036596329700   0.056073192659400   0.375000000000000   1.0000000
B2   B   0.445914055514828   0.555927084860370   0.375000000000000   1.0000000
B2   B   0.777260140673936   0.555296737003636   0.375000000000000   1.0000000
B2   B   0.611187050864012   0.055440062062648   0.375000000000000   1.0000000
B2   B   0.444449178035194   0.555583806661133   0.875000000000000   1.0000000
B2   B   0.944253011198636   0.055440062062648   0.375000000000000   1.0000000
B2   B   0.277777128038888   0.722229917370869   0.875000000000000   1.0000000
B2   B   0.111075567416763   0.222204450375046   0.875000000000000   1.0000000
B2   B   0.444449178035194   0.222198704707398   0.875000000000000   1.0000000
B2   B   0.611128882958290   0.722257765916573   0.875000000000000   1.0000000
B2   B   0.944452789331981   0.722229917370869   0.875000000000000   1.0000000
B2   B   0.777785034746438   0.222212233925618   0.875000000000000   1.0000000
B2   B   0.111111111111114   0.722222222222221   0.375000000000000   1.0000000
B2   B   0.444612403389635   0.721891722258832   0.375000000000000   1.0000000
B2   B   0.277406248472965   0.223320303987793   0.375000000000000   1.0000000
B2   B   0.777279318869198   0.721891722258832   0.375000000000000   1.0000000
B2   B   0.611594097819581   0.221739235513755   0.375000000000000   1.0000000
B2   B   0.944253011198636   0.222146282469323   0.375000000000000   1.0000000
B2   B   0.111086345975647   0.388881828447445   0.875000000000000   1.0000000
B2   B   0.277777128038888   0.888880544001347   0.875000000000000   1.0000000
B2   B   0.611121099407717   0.888906134154148   0.875000000000000   1.0000000
B2   B   0.444444444444443   0.388888888888886   0.875000000000000   1.0000000
B2   B   0.944441525936951   0.888891807396378   0.875000000000000   1.0000000
B2   B   0.111203727645677   0.889083409138148   0.375000000000000   1.0000000
B2   B   0.777795482471805   0.388881828447445   0.875000000000000   1.0000000
B2   B   0.444465240063228   0.888899286698278   0.375000000000000   1.0000000
B2   B   0.277406248472965   0.387419277818501   0.375000000000000   1.0000000
B2   B   0.278036596329700   0.555296737003636   0.375000000000000   1.0000000
B2   B   0.610013029345543   0.387419277818501   0.375000000000000   1.0000000
B2   B   0.777893271270687   0.889080322134693   0.375000000000000   1.0000000
B2   B   0.944434046635050   0.388868093270101   0.375000000000000   1.0000000
B2   B   0.111103415962466   0.555556205294447   0.875000000000000   1.0000000
B2   B   0.277766484861597   0.055532969723195   0.875000000000000   1.0000000
B2   B   0.777800363610141   0.555566848471738   0.875000000000000   1.0000000
B2   B   0.611121099407717   0.055548298586898   0.875000000000000   1.0000000
B2   B   0.944427199179181   0.055548298586898   0.875000000000000   1.0000000
B2   B   0.055492000987929   0.111044653637267   0.125045332677020   1.0000000
B2   B   0.555614302574377   0.611228605148753   0.124960476264176   1.0000000
B2   B   0.388831814788286   0.110959213999073   0.125021720090160   1.0000000
B2   B   0.888996814025227   0.611165073679285   0.125066405497116   1.0000000
B2   B   0.722230440904808   0.111102892428528   0.125082901886844   1.0000000
B2   B   0.055572152209527   0.777761181123809   0.624910903683815   1.0000000
B2   B   0.388844386366947   0.777803620764265   0.624929694853985   1.0000000
B2   B   0.222104728184583   0.277719030758959   0.625039523735825   1.0000000
B2   B   0.722288679696068   0.777841332345406   0.624954667322980   1.0000000
B2   B   0.555614302574377   0.277719030758959   0.625039523735825   1.0000000
B2   B   0.888898710674799   0.277797421349606   0.624922427774313   1.0000000
B2   B   0.222189028914283   0.777761181123809   0.125089096316185   1.0000000
B2   B   0.055492000987929   0.277780680683998   0.125045332677020   1.0000000
B2   B   0.388841117152222   0.277682234304451   0.124723610510625   1.0000000
B2   B   0.555552652649338   0.777841332345406   0.125045332677020   1.0000000
B2   B   0.888959234397311   0.777803620764265   0.125070305146015   1.0000000
B2   B   0.722288679696068   0.277780680683998   0.125045332677020   1.0000000
B2   B   0.055529712569071   0.944374098936018   0.624929694853985   1.0000000
B2   B   0.388844386366947   0.944374098936018   0.624929694853985   1.0000000
B2   B   0.222127399210780   0.444501518545042   0.624978279909840   1.0000000
B2   B   0.555651099028885   0.444492216181107   0.625276389489375   1.0000000
B2   B   0.722230440904808   0.944460881809615   0.624917098113156   1.0000000
B2   B   0.888959234397311   0.444488946966382   0.624929694853985   1.0000000
B2   B   0.055529712569071   0.444488946966382   0.125070305146015   1.0000000
B2   B   0.222168259654051   0.944336519308102   0.125066405497116   1.0000000
B2   B   0.555535911983730   0.944434622658530   0.125077572225687   1.0000000
B2   B   0.388841117152222   0.444492216181107   0.124723610510625   1.0000000
B2   B   0.888898710674799   0.944434622658530   0.125077572225687   1.0000000
B2   B   0.722374119334262   0.444501518545042   0.125021720090160   1.0000000
B2   B   0.222168259654051   0.611165073679285   0.624933594502884   1.0000000
B2   B   0.055492000987929   0.111044653637267   0.624954667322980   1.0000000
B2   B   0.555614302574377   0.611228605148753   0.625039523735825   1.0000000
B2   B   0.388831814788286   0.110959213999073   0.624978279909840   1.0000000
B2   B   0.888996814025227   0.611165073679285   0.624933594502884   1.0000000
B2   B   0.055572152209527   0.611144304419053   0.125089096316185   1.0000000
B2   B   0.722230440904808   0.111102892428528   0.624917098113156   1.0000000
B2   B   0.222127399210780   0.110959213999073   0.125021720090160   1.0000000
B2   B   0.388831814788286   0.611205934122556   0.125021720090160   1.0000000
B2   B   0.722374119334262   0.611205934122556   0.125021720090160   1.0000000
B2   B   0.555552652649338   0.111044653637267   0.125045332677020   1.0000000
B2   B   0.388831814788286   0.611205934122556   0.624978279909840   1.0000000
B2   B   0.888872451523714   0.111102892428528   0.125082901886844   1.0000000
B2   B   0.222189028914283   0.777761181123809   0.624910903683815   1.0000000
B2   B   0.055492000987929   0.277780680683998   0.624954667322980   1.0000000
B2   B   0.388841117152222   0.277682234304451   0.625276389489375   1.0000000
B2   B   0.555552652649338   0.777841332345406   0.624954667322980   1.0000000
B2   B   0.888959234397311   0.777803620764265   0.624929694853985   1.0000000
B2   B   0.722288679696068   0.277780680683998   0.624954667322980   1.0000000
B2   B   0.055572152209527   0.777761181123809   0.125089096316185   1.0000000
B2   B   0.388844386366947   0.777803620764265   0.125070305146015   1.0000000
B2   B   0.222104728184583   0.277719030758959   0.124960476264176   1.0000000
B2   B   0.722288679696068   0.777841332345406   0.125045332677020   1.0000000
B2   B   0.555614302574377   0.277719030758959   0.124960476264176   1.0000000
B2   B   0.888898710674799   0.277797421349606   0.125077572225687   1.0000000
B2   B   0.055529712569071   0.444488946966382   0.624929694853985   1.0000000
B2   B   0.222168259654051   0.944336519308102   0.624933594502884   1.0000000
B2   B   0.555535911983730   0.944434622658530   0.624922427774313   1.0000000
B2   B   0.388841117152222   0.444492216181107   0.625276389489375   1.0000000
B2   B   0.888898710674799   0.944434622658530   0.624922427774313   1.0000000
B2   B   0.055529712569071   0.944374098936018   0.125070305146015   1.0000000
B2   B   0.722374119334262   0.444501518545042   0.624978279909840   1.0000000
B2   B   0.388844386366947   0.944374098936018   0.125070305146015   1.0000000
B2   B   0.222127399210780   0.444501518545042   0.125021720090160   1.0000000
B2   B   0.222168259654051   0.611165073679285   0.125066405497116   1.0000000
B2   B   0.555651099028885   0.444492216181107   0.124723610510625   1.0000000
B2   B   0.722230440904808   0.944460881809615   0.125082901886844   1.0000000
B2   B   0.888959234397311   0.444488946966382   0.125070305146015   1.0000000
B2   B   0.055572152209527   0.611144304419053   0.624910903683815   1.0000000
B2   B   0.222127399210780   0.110959213999073   0.624978279909840   1.0000000
B2   B   0.722374119334262   0.611205934122556   0.624978279909840   1.0000000
B2   B   0.555552652649338   0.111044653637267   0.624954667322980   1.0000000
B2   B   0.888872451523714   0.111102892428528   0.624917098113156   1.0000000


