data_1
_audit_creation_method   'vasp2cif'
_cell_length_a    17.52789999999977
_cell_length_b    17.52789999999977
_cell_length_c    15.0
_cell_angle_alpha    90.0
_cell_angle_beta    90.0
_cell_angle_gamma    119.99999999999916

_symmetry_space_group_name_H-M    'P 1'
loop_
_atom_site_label
_atom_site_type_symbol
_atom_site_fract_x
_atom_site_fract_y
_atom_site_fract_z
_atom_site_occupancy
In2   In   0.433923146481292   0.502676775864662   0.111309292518043   1.0000000
B2   B   0.905076330142738   0.952723360999361   0.110992554366094   1.0000000
B2   B   0.906238673233479   0.096286963250523   0.111030624736310   1.0000000
B2   B   0.906469983854181   0.238949338772582   0.111108887772512   1.0000000
B2   B   0.906238673233479   0.381380403673990   0.111030624736310   1.0000000
B2   B   0.905076330142738   0.523783374391426   0.110992554366094   1.0000000
B2   B   0.903290974133731   0.666054274434379   0.111045345631214   1.0000000
B2   B   0.903290974133731   0.808667104947379   0.111045345631214   1.0000000
B2   B   0.046687138345108   0.951429462060940   0.110993597333686   1.0000000
B2   B   0.047747619809936   0.094763792158275   0.110986722765702   1.0000000
B2   B   0.048977475794325   0.238888747667029   0.111028828238729   1.0000000
B2   B   0.048977475794325   0.381519133374288   0.111028828238729   1.0000000
B2   B   0.047747619809936   0.524414232899656   0.110986722765702   1.0000000
B2   B   0.046687138345108   0.666689793088157   0.110993597333686   1.0000000
B2   B   0.046320501588550   0.808876309196301   0.110986868308242   1.0000000
B2   B   0.189471978883726   0.951290955197151   0.111015866328014   1.0000000
B2   B   0.189764318858928   0.093359207455727   0.111039419017236   1.0000000
B2   B   0.189943820432098   0.236053623853146   0.110998218558817   1.0000000
B2   B   0.192303305988399   0.381866855617713   0.111006622088409   1.0000000
B2   B   0.189943820432098   0.525320601826958   0.110998218558817   1.0000000
B2   B   0.189764318858928   0.667835516651180   0.111039419017236   1.0000000
B2   B   0.189471978883726   0.809613140490592   0.111015866328014   1.0000000
B2   B   0.332896062595218   0.952164089699132   0.111037544559247   1.0000000
B2   B   0.332971734614103   0.092153037456198   0.111064239959470   1.0000000
B2   B   0.333259572364130   0.231484234766276   0.111050898936687   1.0000000
B2   B   0.329874849207976   0.364693228015451   0.111117794481041   1.0000000
B2   B   0.329874849207976   0.536612026439534   0.111117794481041   1.0000000
B2   B   0.333259572364130   0.673205742844849   0.111050898936687   1.0000000
B2   B   0.332971734614103   0.812249102404895   0.111064239959470   1.0000000
B2   B   0.476908123371098   0.954339181290445   0.111004851900339   1.0000000
B2   B   0.476908123371098   0.093999347327644   0.111004851900339   1.0000000
B2   B   0.477240955022596   0.233471888307900   0.111013837403427   1.0000000
B2   B   0.478621978028747   0.372687465629476   0.111046441245403   1.0000000
B2   B   0.478621978028747   0.677364917646287   0.111046441245403   1.0000000
B2   B   0.477240955022596   0.815199471961692   0.111013837403427   1.0000000
B2   B   0.620819709330660   0.955003578333666   0.110977760796312   1.0000000
B2   B   0.620687093638104   0.096057893664545   0.110973047454564   1.0000000
B2   B   0.620819709330660   0.237246536243954   0.110977760796312   1.0000000
B2   B   0.620931370451276   0.378826759814378   0.111024504113394   1.0000000
B2   B   0.618039617406950   0.520395659692261   0.111057258019615   1.0000000
B2   B   0.618039617406950   0.669074362962706   0.111057258019615   1.0000000
B2   B   0.620931370451270   0.813535015883900   0.111024504113394   1.0000000
B2   B   0.763578917189595   0.954323567069514   0.110985478416366   1.0000000
B2   B   0.763787836416210   0.096625658041266   0.111028333569186   1.0000000
B2   B   0.763787836416210   0.238590872065919   0.111028333569186   1.0000000
B2   B   0.763578917189595   0.380685755367057   0.110985478416366   1.0000000
B2   B   0.762230159681374   0.522920944190129   0.111051860254284   1.0000000
B2   B   0.759031654928618   0.665231030088327   0.111093467708104   1.0000000
B2   B   0.762230159681374   0.810739620739266   0.111051860254284   1.0000000
N2   N   0.951674494358977   0.904159586234425   0.110988379430630   1.0000000
N2   N   0.952907597876787   0.047840664917263   0.110973556198000   1.0000000
N2   N   0.953798116747956   0.191298519472162   0.111058776873122   1.0000000
N2   N   0.953798116747956   0.333926579393788   0.111058776873122   1.0000000
N2   N   0.952907597876787   0.476493915077533   0.110973556198000   1.0000000
N2   N   0.951674494358977   0.618943601799538   0.110988379430630   1.0000000
N2   N   0.951236097465804   0.761332395570432   0.111012512145526   1.0000000
N2   N   0.094235091751115   0.903881381813167   0.110970801274729   1.0000000
N2   N   0.094571576692581   0.046387959695503   0.110982986812206   1.0000000
N2   N   0.095160723635063   0.189660353665395   0.110966601658881   1.0000000
N2   N   0.096411208772191   0.333919951223095   0.111000927291293   1.0000000
N2   N   0.095160723635063   0.476929063643675   0.110966601658881   1.0000000
N2   N   0.094571576692581   0.619612310672077   0.110982986812206   1.0000000
N2   N   0.094235091751115   0.761784115168940   0.110970801274729   1.0000000
N2   N   0.237456003759811   0.904443204495392   0.110997286416482   1.0000000
N2   N   0.237480726388491   0.045793645751642   0.111043967726562   1.0000000
N2   N   0.237492896592851   0.187635873411871   0.111014420183594   1.0000000
N2   N   0.237091440763225   0.331148995416786   0.111013860798197   1.0000000
N2   N   0.237091440763225   0.477371139020415   0.111013860798197   1.0000000
N2   N   0.237492896592851   0.621285716855972   0.111014420183594   1.0000000
N2   N   0.237480726388491   0.763115774311830   0.111043967726562   1.0000000
N2   N   0.381386588511122   0.906603138749970   0.111027129176008   1.0000000
N2   N   0.381386588511122   0.046212143436152   0.111027129176008   1.0000000
N2   N   0.381665137637985   0.185565159319863   0.111031265697290   1.0000000
N2   N   0.382729230087028   0.323893259571540   0.111027701934782   1.0000000
N2   N   0.382729230087028   0.630264664190483   0.111027701934782   1.0000000
N2   N   0.381665137637985   0.767528671993134   0.111031265697290   1.0000000
N2   N   0.525657490833309   0.909194527358454   0.110971337045353   1.0000000
N2   N   0.525420388478251   0.048423685298621   0.110959030501617   1.0000000
N2   N   0.525657490833309   0.187891657149884   0.110971337045353   1.0000000
N2   N   0.526356503739079   0.326742837568462   0.111015793673181   1.0000000
N2   N   0.526757698746944   0.464113393886456   0.111013295896588   1.0000000
N2   N   0.526757698746944   0.634072998535441   0.111013295896588   1.0000000
N2   N   0.526356503739079   0.771042359845644   0.111015793673181   1.0000000
N2   N   0.668989719288865   0.908377217895561   0.110965061039157   1.0000000
N2   N   0.668821214290239   0.049587621349279   0.110971698123368   1.0000000
N2   N   0.668821214290239   0.190660575059940   0.110971698123368   1.0000000
N2   N   0.668989719288865   0.332041195068314   0.110965061039157   1.0000000
N2   N   0.668259860919080   0.474260648377783   0.111028842572876   1.0000000
N2   N   0.663980896215370   0.617704794945680   0.111058285266721   1.0000000
N2   N   0.668259860919080   0.765427906216275   0.111028842572876   1.0000000
N2   N   0.810503510912546   0.906132069904993   0.110990028537948   1.0000000
N2   N   0.811375428568702   0.049293721062012   0.110998396405964   1.0000000
N2   N   0.811472174502813   0.191449578310405   0.111053359729996   1.0000000
N2   N   0.811375428568702   0.333508689624717   0.110998396405964   1.0000000
N2   N   0.810503510912546   0.475800134681552   0.110990028537948   1.0000000
N2   N   0.808382917046467   0.618406785792472   0.111065173828883   1.0000000
N2   N   0.808382917046467   0.761404824929019   0.111065173828883   1.0000000


