data_1
_audit_creation_method   'vasp2cif'
_cell_length_a    17.52789999999977
_cell_length_b    17.52789999999977
_cell_length_c    15.0
_cell_angle_alpha    90.0
_cell_angle_beta    90.0
_cell_angle_gamma    119.99999999999916

_symmetry_space_group_name_H-M    'P 1'
loop_
_atom_site_label
_atom_site_type_symbol
_atom_site_fract_x
_atom_site_fract_y
_atom_site_fract_z
_atom_site_occupancy
B2   B   0.905259287695603   0.952877393714139   0.111014532231196   1.0000000
B2   B   0.905251494859330   0.095677536855343   0.111048029871624   1.0000000
B2   B   0.905169988056086   0.238395486840683   0.111063316914183   1.0000000
B2   B   0.904842361480180   0.381097979402224   0.111010082982676   1.0000000
B2   B   0.904146846952819   0.523775310315808   0.111006393187323   1.0000000
B2   B   0.904725429810265   0.666665662297814   0.111066237384408   1.0000000
B2   B   0.905210665709711   0.809907132460916   0.111058525756260   1.0000000
B2   B   0.047428866647789   0.952010922327367   0.111020917308113   1.0000000
B2   B   0.047990940099279   0.095438283378709   0.111023836557553   1.0000000
B2   B   0.048235665591743   0.238380128202261   0.111016657057968   1.0000000
B2   B   0.048103102259914   0.381148405207202   0.111036702361801   1.0000000
B2   B   0.047467643193323   0.523815443033518   0.111020014948262   1.0000000
B2   B   0.047235056703201   0.666451621789251   0.111031277824773   1.0000000
B2   B   0.047308160312584   0.809112787071464   0.111010171453651   1.0000000
B2   B   0.189670021217897   0.951119681356873   0.111032202363976   1.0000000
B2   B   0.189702049949838   0.093715206831766   0.111063252311158   1.0000000
B2   B   0.191317093288304   0.238116474640688   0.111003876509530   1.0000000
B2   B   0.191465335765203   0.381215056709312   0.110996570829497   1.0000000
B2   B   0.190773069904243   0.524201324606459   0.111073501680432   1.0000000
B2   B   0.189924172511205   0.666683146201757   0.111067995639021   1.0000000
B2   B   0.189935847658949   0.809011858098748   0.111003500658427   1.0000000
B2   B   0.332714790955856   0.951182219509053   0.111049932682741   1.0000000
B2   B   0.331966646283416   0.092218530189005   0.111089317197743   1.0000000
B2   B   0.332530033257870   0.233582521499609   0.111020780086251   1.0000000
B2   B   0.336571855657012   0.380782735655038   0.110917815848660   1.0000000
B2   B   0.334204280130120   0.526662646278503   0.110996872843449   1.0000000
B2   B   0.332522273765205   0.667724248431197   0.111103443258458   1.0000000
B2   B   0.332844853861682   0.809517082233700   0.111059233808634   1.0000000
B2   B   0.475976223886870   0.952008982100735   0.111022438639328   1.0000000
B2   B   0.475685579085034   0.093526821633234   0.111049529687224   1.0000000
B2   B   0.473542158047347   0.233619372233352   0.111027853836203   1.0000000
B2   B   0.474512794958375   0.668792030237524   0.110993108138482   1.0000000
B2   B   0.475943332201661   0.810218166306398   0.111051304840176   1.0000000
B2   B   0.619262682027556   0.952901918610949   0.111033409769983   1.0000000
B2   B   0.619156488955700   0.095144767598304   0.111015223968134   1.0000000
B2   B   0.618880312185513   0.237525268573842   0.111017229321812   1.0000000
B2   B   0.618482717999365   0.381206010173193   0.110997862467896   1.0000000
B2   B   0.620214816293151   0.527558144381517   0.111094228386536   1.0000000
B2   B   0.621837617153557   0.669218218488993   0.110950792286940   1.0000000
B2   B   0.619635632875546   0.811014783879571   0.111006597957003   1.0000000
B2   B   0.762433496040253   0.953127547396173   0.111007862250380   1.0000000
B2   B   0.762250887342161   0.095598622185211   0.111049705361095   1.0000000
B2   B   0.762066666906558   0.238190567363969   0.111060364428753   1.0000000
B2   B   0.761640551256617   0.380952105981740   0.111014177113076   1.0000000
B2   B   0.760795104531687   0.524079593045565   0.111058205066921   1.0000000
B2   B   0.763256935755109   0.667981100282737   0.111057526886171   1.0000000
B2   B   0.762840627513910   0.810653068969508   0.111003106398431   1.0000000
N2   N   0.952269781915215   0.904744003981133   0.111013637517931   1.0000000
N2   N   0.952769866556076   0.047974459931612   0.111012287970662   1.0000000
N2   N   0.953043199556229   0.190935937911087   0.111030487335917   1.0000000
N2   N   0.952893183209729   0.333715402730967   0.111019305991689   1.0000000
N2   N   0.952089466165690   0.476319313433289   0.110975427705859   1.0000000
N2   N   0.951824329263636   0.618853535342217   0.111027051458714   1.0000000
N2   N   0.951943291378087   0.761619531817037   0.111046168313713   1.0000000
N2   N   0.094618031277188   0.904062902307157   0.110991360828717   1.0000000
N2   N   0.094877119387879   0.047164789001560   0.111020024024251   1.0000000
N2   N   0.096170654070364   0.191073577730478   0.110994964199129   1.0000000
N2   N   0.096486904673672   0.333904341855383   0.110994555388644   1.0000000
N2   N   0.095839885476316   0.476427677230894   0.111030864560198   1.0000000
N2   N   0.094933969320591   0.618883087604995   0.111022761195615   1.0000000
N2   N   0.094752786209519   0.761435279097490   0.110984264999126   1.0000000
N2   N   0.237556621980557   0.903877713272755   0.111001683031457   1.0000000
N2   N   0.237115007994304   0.046045390180301   0.111054645223504   1.0000000
N2   N   0.237337566987290   0.189117937581067   0.111019193126158   1.0000000
N2   N   0.240366359644905   0.334684045419213   0.110966122969442   1.0000000
N2   N   0.239848756238282   0.476766167065092   0.111015490662368   1.0000000
N2   N   0.238024035109335   0.619178461975217   0.111073229817691   1.0000000
N2   N   0.237772432585779   0.761573505747336   0.111025763343486   1.0000000
N2   N   0.380777411278491   0.904178601717779   0.111020869142454   1.0000000
N2   N   0.380461724456807   0.045945213910612   0.111066405968117   1.0000000
N2   N   0.379471935450494   0.186816845342494   0.111064485431669   1.0000000
N2   N   0.373129619501967   0.326331638161708   0.110898590323029   1.0000000
N2   N   0.381019202104302   0.476884115623097   0.110701292597524   1.0000000
N2   N   0.381004064927421   0.620289745967180   0.111085305234778   1.0000000
N2   N   0.380891033052395   0.762131277249657   0.111063740384592   1.0000000
N2   N   0.523930777778971   0.904680155959498   0.111018911605015   1.0000000
N2   N   0.523874515462407   0.046875962907341   0.110992766669112   1.0000000
N2   N   0.523679665550010   0.188569579756790   0.111015956403956   1.0000000
N2   N   0.526615118772879   0.325874400200543   0.110856322001177   1.0000000
N2   N   0.526526450706208   0.625296901752771   0.110700914275527   1.0000000
N2   N   0.524246621459121   0.762577833123456   0.111005094289359   1.0000000
N2   N   0.666984432293491   0.905285033063172   0.110998903743519   1.0000000
N2   N   0.666924317726435   0.047741815628630   0.111017156299857   1.0000000
N2   N   0.666817629218363   0.190397223024548   0.111023856135373   1.0000000
N2   N   0.666315116091637   0.333261612327505   0.110997926218076   1.0000000
N2   N   0.663390575821686   0.476813076230739   0.111040737677307   1.0000000
N2   N   0.666873350957057   0.620469891575755   0.111014499179380   1.0000000
N2   N   0.666823896155975   0.762883796602857   0.110970089947457   1.0000000
N2   N   0.809766817684765   0.905179386222405   0.110981026028471   1.0000000
N2   N   0.809928184287354   0.047998809988336   0.111028467245694   1.0000000
N2   N   0.809894236361096   0.190775428812335   0.111050220446238   1.0000000
N2   N   0.809453227287520   0.333581587414371   0.111021115366237   1.0000000
N2   N   0.808186895091781   0.476382751352382   0.110998061620678   1.0000000
N2   N   0.808804054281059   0.619072026506456   0.111057846560046   1.0000000
N2   N   0.809601753497315   0.762356597075467   0.111026903374137   1.0000000
O2   O   0.478883819837978   0.529318867818284   0.111153185303619   1.0000000
O2   O   0.524150499220797   0.478999293730644   0.111330388822998   1.0000000


