data_1
_audit_creation_method   'vasp2cif'
_cell_length_a    14.93631414619966
_cell_length_b    14.936314146199727
_cell_length_c    13.341276283792837
_cell_angle_alpha    90.0
_cell_angle_beta    90.0
_cell_angle_gamma    119.99999999999984

_symmetry_space_group_name_H-M    'P 1'
loop_
_atom_site_label
_atom_site_type_symbol
_atom_site_fract_x
_atom_site_fract_y
_atom_site_fract_z
_atom_site_occupancy
Pb2   Pb   0.492497807146512   0.412915570239920   0.375000000000000   1.0000000
N2   N   0.111117034131985   0.055539219076607   0.125119460929404   1.0000000
N2   N   0.611145829756246   0.555622837460578   0.123971154668655   1.0000000
N2   N   0.444459321301180   0.055534787010987   0.125151564831513   1.0000000
N2   N   0.944463407020806   0.555567912058668   0.125241634366661   1.0000000
N2   N   0.777798743284759   0.055566038309047   0.125068024231783   1.0000000
N2   N   0.111128532820767   0.722230933077048   0.624875325542013   1.0000000
N2   N   0.444459321301180   0.722257867623530   0.624848435168487   1.0000000
N2   N   0.277755719919688   0.222189670169062   0.625253173527041   1.0000000
N2   N   0.777793117803827   0.722234359205360   0.624788403129466   1.0000000
N2   N   0.611124459012420   0.222197738014406   0.624960321791986   1.0000000
N2   N   0.944464970596416   0.222237960833077   0.624889862563370   1.0000000
N2   N   0.277793229010468   0.722240658746139   0.125138412820689   1.0000000
N2   N   0.111124113907341   0.222228723620335   0.125091277288852   1.0000000
N2   N   0.444466542466320   0.222200358690360   0.124779353826632   1.0000000
N2   N   0.611124459012420   0.722260054331344   0.125039678208015   1.0000000
N2   N   0.944463407020806   0.722228828295471   0.125241634366661   1.0000000
N2   N   0.777797287550376   0.222226853171134   0.125127564452713   1.0000000
N2   N   0.111126838161753   0.888883943308530   0.624862829115210   1.0000000
N2   N   0.444460284938967   0.888896809136148   0.624886684378965   1.0000000
N2   N   0.277755719919688   0.388899383083955   0.625253173527041   1.0000000
N2   N   0.611145829756246   0.388856325628996   0.626028845331346   1.0000000
N2   N   0.777797287550376   0.888903767712570   0.624872435547287   1.0000000
N2   N   0.944462176091869   0.388906910310855   0.624819990741699   1.0000000
N2   N   0.111117034131985   0.388911148388706   0.125119460929404   1.0000000
N2   N   0.277793229010468   0.888885903597658   0.125138412820689   1.0000000
N2   N   0.611126624495880   0.888910662091889   0.125114679454169   1.0000000
N2   N   0.444392200668324   0.388862767000826   0.124523992749567   1.0000000
N2   N   0.944462176091869   0.888888599114343   0.125180009258301   1.0000000
N2   N   0.777793117803827   0.388892091931797   0.125211596870533   1.0000000
N2   N   0.277790997041759   0.555586408306076   0.624856105023565   1.0000000
N2   N   0.111117034131985   0.055539219076607   0.624880539070596   1.0000000
N2   N   0.611145829756246   0.555622837460578   0.626028845331346   1.0000000
N2   N   0.444459321301180   0.055534787010987   0.624848435168487   1.0000000
N2   N   0.944463407020806   0.555567912058668   0.624758365633339   1.0000000
N2   N   0.111126838161753   0.555576228186552   0.125137170884790   1.0000000
N2   N   0.777798743284759   0.055566038309047   0.624931975768217   1.0000000
N2   N   0.277790997041759   0.055537922069018   0.125143894976435   1.0000000
N2   N   0.444466542466320   0.555599517109296   0.124779353826632   1.0000000
N2   N   0.777791410871567   0.555562372102452   0.125111334862892   1.0000000
N2   N   0.611126624495880   0.055549295737319   0.125114679454169   1.0000000
N2   N   0.444466542466320   0.555599517109296   0.625220646173368   1.0000000
N2   N   0.944464970596416   0.055560343096675   0.125110137436630   1.0000000
N2   N   0.277793229010468   0.722240658746139   0.624861587179310   1.0000000
N2   N   0.111124113907341   0.222228723620335   0.624908722711149   1.0000000
N2   N   0.444466542466320   0.222200358690360   0.625220646173368   1.0000000
N2   N   0.611124459012420   0.722260054331344   0.624960321791986   1.0000000
N2   N   0.944463407020806   0.722228828295471   0.624758365633339   1.0000000
N2   N   0.777797287550376   0.222226853171134   0.624872435547287   1.0000000
N2   N   0.111128532820767   0.722230933077048   0.125124674457988   1.0000000
N2   N   0.444459321301180   0.722257867623530   0.125151564831513   1.0000000
N2   N   0.277755719919688   0.222189670169062   0.124746826472958   1.0000000
N2   N   0.777793117803827   0.722234359205360   0.125211596870533   1.0000000
N2   N   0.611124459012420   0.222197738014406   0.125039678208015   1.0000000
N2   N   0.944464970596416   0.222237960833077   0.125110137436630   1.0000000
N2   N   0.111117034131985   0.388911148388706   0.624880539070596   1.0000000
N2   N   0.277793229010468   0.888885903597658   0.624861587179310   1.0000000
N2   N   0.611126624495880   0.888910662091889   0.624885320545830   1.0000000
N2   N   0.444392200668324   0.388862767000826   0.625476007250434   1.0000000
N2   N   0.944462176091869   0.888888599114343   0.624819990741699   1.0000000
N2   N   0.111126838161753   0.888883943308530   0.125137170884790   1.0000000
N2   N   0.777793117803827   0.388892091931797   0.624788403129466   1.0000000
N2   N   0.444460284938967   0.888896809136148   0.125113315621035   1.0000000
N2   N   0.277755719919688   0.388899383083955   0.124746826472958   1.0000000
N2   N   0.277790997041759   0.555586408306076   0.125143894976435   1.0000000
N2   N   0.611145829756246   0.388856325628996   0.123971154668655   1.0000000
N2   N   0.777797287550376   0.888903767712570   0.125127564452713   1.0000000
N2   N   0.944462176091869   0.388906910310855   0.125180009258301   1.0000000
N2   N   0.111126838161753   0.555576228186552   0.624862829115210   1.0000000
N2   N   0.277790997041759   0.055537922069018   0.624856105023565   1.0000000
N2   N   0.777791410871567   0.555562372102452   0.624888665137108   1.0000000
N2   N   0.611126624495880   0.055549295737319   0.624885320545830   1.0000000
N2   N   0.944464970596416   0.055560343096675   0.624889862563370   1.0000000
N2   N   0.056202888458827   0.111549330192844   0.375000000000000   1.0000000
N2   N   0.553732316002919   0.617580220228429   0.375000000000000   1.0000000
N2   N   0.386043544931273   0.102661071391309   0.375000000000000   1.0000000
N2   N   0.887070579833624   0.610201956583485   0.375000000000000   1.0000000
N2   N   0.722624448541672   0.110568474258050   0.375000000000000   1.0000000
N2   N   0.055560998187986   0.777783463876570   0.875000000000000   1.0000000
N2   N   0.388903332582826   0.777783441518232   0.875000000000000   1.0000000
N2   N   0.222229084305015   0.277781208819176   0.875000000000000   1.0000000
N2   N   0.722235679907160   0.777784909172749   0.875000000000000   1.0000000
N2   N   0.555567267547385   0.277783343586008   0.875000000000000   1.0000000
N2   N   0.888899226064014   0.277781774613989   0.875000000000000   1.0000000
N2   N   0.219577771258752   0.776455552296044   0.375000000000000   1.0000000
N2   N   0.056202888458827   0.277986891599319   0.375000000000000   1.0000000
N2   N   0.384733956745834   0.262075113356294   0.375000000000000   1.0000000
N2   N   0.554790627867210   0.780805535146325   0.375000000000000   1.0000000
N2   N   0.888352463224013   0.778070144845733   0.375000000000000   1.0000000
N2   N   0.722446409729275   0.276048093086912   0.375000000000000   1.0000000
N2   N   0.055560995533939   0.944450290908388   0.875000000000000   1.0000000
N2   N   0.388903332582826   0.944453224397930   0.875000000000000   1.0000000
N2   N   0.222228849673168   0.444445211923226   0.875000000000000   1.0000000
N2   N   0.555565769773774   0.444449551553551   0.875000000000000   1.0000000
N2   N   0.722232954196122   0.944450235393960   0.875000000000000   1.0000000
N2   N   0.888899062169499   0.444446668282977   0.875000000000000   1.0000000
N2   N   0.054304957131984   0.444207307760574   0.375000000000000   1.0000000
N2   N   0.219465013843551   0.941384244876741   0.375000000000000   1.0000000
N2   N   0.554949636161448   0.944141484747388   0.375000000000000   1.0000000
N2   N   0.384733956745834   0.455992176722876   0.375000000000000   1.0000000
N2   N   0.889257085606720   0.945275209544614   0.375000000000000   1.0000000
N2   N   0.722752299661988   0.443751105142039   0.375000000000000   1.0000000
N2   N   0.222230259383015   0.611111378832649   0.875000000000000   1.0000000
N2   N   0.055561156946202   0.111114429591537   0.875000000000000   1.0000000
N2   N   0.555567267547385   0.611117257294712   0.875000000000000   1.0000000
N2   N   0.388901400202773   0.111120343969215   0.875000000000000   1.0000000
N2   N   0.888899328610169   0.611116330971756   0.875000000000000   1.0000000
N2   N   0.053227286017882   0.610239681442258   0.375000000000000   1.0000000
N2   N   0.722232954196122   0.111116052135497   0.875000000000000   1.0000000
N2   N   0.220270475084833   0.107989931805947   0.375000000000000   1.0000000
N2   N   0.386043544931273   0.616715806873307   0.375000000000000   1.0000000
N2   N   0.722752299661988   0.612334527853285   0.375000000000000   1.0000000
N2   N   0.554790627867210   0.107318426054220   0.375000000000000   1.0000000
N2   N   0.388901400202773   0.611114389566900   0.875000000000000   1.0000000
N2   N   0.889601300501465   0.111467316917404   0.375000000000000   1.0000000
N2   N   0.222230597883473   0.777781965608404   0.875000000000000   1.0000000
N2   N   0.055561156946202   0.277780060688001   0.875000000000000   1.0000000
N2   N   0.388901268320725   0.277784940024156   0.875000000000000   1.0000000
N2   N   0.555569159962249   0.777784124063844   0.875000000000000   1.0000000
N2   N   0.888899062169499   0.777785727219859   0.875000000000000   1.0000000
N2   N   0.722235679907160   0.277784104067748   0.875000000000000   1.0000000
N2   N   0.053227286017882   0.776320937908961   0.375000000000000   1.0000000
N2   N   0.386817839257263   0.778808740051876   0.375000000000000   1.0000000
N2   N   0.224081602553497   0.278707467943416   0.375000000000000   1.0000000
N2   N   0.722446409729275   0.779731649975698   0.375000000000000   1.0000000
N2   N   0.553732316002919   0.269485429107827   0.375000000000000   1.0000000
N2   N   0.889257085606720   0.277315209395441   0.375000000000000   1.0000000
N2   N   0.055560995533939   0.444444037958881   0.875000000000000   1.0000000
N2   N   0.222230259383015   0.944452213883702   0.875000000000000   1.0000000
N2   N   0.555567623145201   0.944450478239265   0.875000000000000   1.0000000
N2   N   0.388901268320725   0.444449661629905   0.875000000000000   1.0000000
N2   N   0.888899226064014   0.944450784783360   0.875000000000000   1.0000000
N2   N   0.054304957131984   0.943430982704737   0.375000000000000   1.0000000
N2   N   0.722237101083520   0.444451782786602   0.875000000000000   1.0000000
N2   N   0.386817839257263   0.941342432538723   0.375000000000000   1.0000000
N2   N   0.220270475084832   0.445613876612220   0.375000000000000   1.0000000
N2   N   0.219465013843551   0.611414102300146   0.375000000000000   1.0000000
N2   N   0.722624448541672   0.945389307616958   0.375000000000000   1.0000000
N2   N   0.888352463224013   0.443615651711615   0.375000000000000   1.0000000
N2   N   0.055560998187986   0.611110867644751   0.875000000000000   1.0000000
N2   N   0.222228849673168   0.111116971083278   0.875000000000000   1.0000000
N2   N   0.722237101083520   0.611118651630256   0.875000000000000   1.0000000
N2   N   0.555569159962249   0.111118369231742   0.875000000000000   1.0000000
N2   N   0.888898303376170   0.111115818354757   0.875000000000000   1.0000000
B2   B   0.109874792070010   0.054258434512087   0.375000000000000   1.0000000
B2   B   0.618098265488579   0.575403316990146   0.375000000000000   1.0000000
B2   B   0.443267870319283   0.050430848591941   0.375000000000000   1.0000000
B2   B   0.943086351017786   0.554710441264730   0.375000000000000   1.0000000
B2   B   0.778811088585448   0.056072210959392   0.375000000000000   1.0000000
B2   B   0.111130365102476   0.722231849217902   0.875000000000000   1.0000000
B2   B   0.444445601774916   0.722239583051213   0.875000000000000   1.0000000
B2   B   0.277738270986487   0.222199577007342   0.875000000000000   1.0000000
B2   B   0.777820264445997   0.722273333047477   0.875000000000000   1.0000000
B2   B   0.611130225702078   0.222197325218977   0.875000000000000   1.0000000
B2   B   0.944459534715017   0.222218347952882   0.875000000000000   1.0000000
B2   B   0.275565075013753   0.722114215542575   0.375000000000000   1.0000000
B2   B   0.112384741974857   0.222859037654093   0.375000000000000   1.0000000
B2   B   0.440723587105374   0.210411647273586   0.375000000000000   1.0000000
B2   B   0.611887314221351   0.728787044764265   0.375000000000000   1.0000000
B2   B   0.943086351017786   0.721709243086393   0.375000000000000   1.0000000
B2   B   0.778753802003084   0.221052048533957   0.375000000000000   1.0000000
B2   B   0.111122369709412   0.888904520536657   0.875000000000000   1.0000000
B2   B   0.444452926226670   0.888893129779999   0.875000000000000   1.0000000
B2   B   0.277738270986487   0.388872027312473   0.875000000000000   1.0000000
B2   B   0.611127265611915   0.388877262224972   0.875000000000000   1.0000000
B2   B   0.777810570527831   0.888933929249177   0.875000000000000   1.0000000
B2   B   0.944473355909845   0.388879446339133   0.875000000000000   1.0000000
B2   B   0.109874792070010   0.388949690891252   0.375000000000000   1.0000000
B2   B   0.275565075013753   0.886784192804506   0.375000000000000   1.0000000
B2   B   0.611654660236536   0.890977310408687   0.375000000000000   1.0000000
B2   B   0.944113060519841   0.889401944262031   0.375000000000000   1.0000000
B2   B   0.779024219190872   0.386783501464979   0.375000000000000   1.0000000
B2   B   0.277762594878909   0.555551800720370   0.875000000000000   1.0000000
B2   B   0.111104212479725   0.055560736542201   0.875000000000000   1.0000000
B2   B   0.611127265611915   0.555583336720274   0.875000000000000   1.0000000
B2   B   0.444445601774916   0.055539352057040   0.875000000000000   1.0000000
B2   B   0.944485208109836   0.555563312651735   0.875000000000000   1.0000000
B2   B   0.108913559927855   0.555102858049016   0.375000000000000   1.0000000
B2   B   0.777804686063700   0.055569009698518   0.875000000000000   1.0000000
B2   B   0.274933766087269   0.051408731682024   0.375000000000000   1.0000000
B2   B   0.440723587105374   0.563645273165123   0.375000000000000   1.0000000
B2   B   0.777696592089694   0.555514962711514   0.375000000000000   1.0000000
B2   B   0.611654660236536   0.054010683161179   0.375000000000000   1.0000000
B2   B   0.444426817015574   0.555568183367374   0.875000000000000   1.0000000
B2   B   0.945340200936113   0.056435826893889   0.375000000000000   1.0000000
B2   B   0.277781952203907   0.722225781841666   0.875000000000000   1.0000000
B2   B   0.111093743990157   0.222213538661743   0.875000000000000   1.0000000
B2   B   0.444426817015574   0.222191966981537   0.875000000000000   1.0000000
B2   B   0.611130225702078   0.722266233816429   0.875000000000000   1.0000000
B2   B   0.944485208109836   0.722255228791435   0.875000000000000   1.0000000
B2   B   0.777810570527831   0.222209974611982   0.875000000000000   1.0000000
B2   B   0.108875462339898   0.721104397836614   0.375000000000000   1.0000000
B2   B   0.443267870319283   0.726170355060677   0.375000000000000   1.0000000
B2   B   0.276093822232754   0.218901472716794   0.375000000000000   1.0000000
B2   B   0.779024219190872   0.725574051059221   0.375000000000000   1.0000000
B2   B   0.611887314221351   0.216433602790415   0.375000000000000   1.0000000
B2   B   0.945340200936113   0.222237707375559   0.375000000000000   1.0000000
B2   B   0.111104212479725   0.388876809270852   0.875000000000000   1.0000000
B2   B   0.277781952203907   0.888889503695568   0.875000000000000   1.0000000
B2   B   0.611130182394415   0.888914784354521   0.875000000000000   1.0000000
B2   B   0.444415111972019   0.388874222652673   0.875000000000000   1.0000000
B2   B   0.944473355909845   0.888927242904041   0.875000000000000   1.0000000
B2   B   0.108913559927855   0.887144035212169   0.375000000000000   1.0000000
B2   B   0.777820264445997   0.388880264731848   0.875000000000000   1.0000000
B2   B   0.443577656250280   0.888455494791804   0.375000000000000   1.0000000
B2   B   0.276093822232754   0.390525682849288   0.375000000000000   1.0000000
B2   B   0.274933766087269   0.556858367738582   0.375000000000000   1.0000000
B2   B   0.618098265488579   0.376028281831761   0.375000000000000   1.0000000
B2   B   0.778753802003084   0.891035086802454   0.375000000000000   1.0000000
B2   B   0.944113060519841   0.388044449591138   0.375000000000000   1.0000000
B2   B   0.111122369709412   0.555551182506084   0.875000000000000   1.0000000
B2   B   0.277762594878909   0.055544127491874   0.875000000000000   1.0000000
B2   B   0.777824826694141   0.555579080013738   0.875000000000000   1.0000000
B2   B   0.611130182394415   0.055548731373223   0.875000000000000   1.0000000
B2   B   0.944459534715017   0.055574520095471   0.875000000000000   1.0000000
B2   B   0.055570734689935   0.111112738485126   0.124949366849467   1.0000000
B2   B   0.555507921795552   0.611257961072313   0.123902938990606   1.0000000
B2   B   0.388799184164788   0.110928551618625   0.124788482128407   1.0000000
B2   B   0.889068525884177   0.611200929608759   0.124848611122208   1.0000000
B2   B   0.722246406468913   0.111075653023674   0.124865688366610   1.0000000
B2   B   0.055664446421424   0.777830923259179   0.625068323602485   1.0000000
B2   B   0.388856333815489   0.777815309477602   0.625072565541864   1.0000000
B2   B   0.222138932210793   0.277736132772064   0.625335882575726   1.0000000
B2   B   0.722284727584346   0.777920033915684   0.625304869335186   1.0000000
B2   B   0.555507921795552   0.277583294056575   0.626097061009394   1.0000000
B2   B   0.888959541711070   0.277776750440758   0.625085258617877   1.0000000
B2   B   0.222251128387762   0.777792230860548   0.124933251199206   1.0000000
B2   B   0.055570734689935   0.277791329538144   0.124949366849467   1.0000000
B2   B   0.388644687199694   0.277478625316291   0.124185244407479   1.0000000
B2   B   0.555520182856338   0.777884869874055   0.124806892051836   1.0000000
B2   B   0.889033970110921   0.777890370659183   0.124894812291131   1.0000000
B2   B   0.722284727584346   0.277698027001999   0.124695130664813   1.0000000
B2   B   0.055611757694978   0.944464776127242   0.625044336263889   1.0000000
B2   B   0.388856333815489   0.944374357671221   0.625072565541864   1.0000000
B2   B   0.222158453631577   0.444480771749498   0.625155230169811   1.0000000
B2   B   0.555634825098454   0.444484079215891   0.626601013726404   1.0000000
B2   B   0.722246406468913   0.944504086778574   0.625134311633389   1.0000000
B2   B   0.889033970110921   0.444476932785074   0.625105187708869   1.0000000
B2   B   0.055611757694978   0.444480314901064   0.124955663736110   1.0000000
B2   B   0.222226246310700   0.944400009752435   0.124960773683682   1.0000000
B2   B   0.555535442752299   0.944434388042813   0.124893358645246   1.0000000
B2   B   0.388644687199694   0.444499395216738   0.124185244407479   1.0000000
B2   B   0.888959541711070   0.944516124603648   0.124914741382124   1.0000000
B2   B   0.722372193982127   0.444460757229653   0.124085382298338   1.0000000
B2   B   0.222226246310700   0.611159569891601   0.625039226316318   1.0000000
B2   B   0.055570734689935   0.111112738485126   0.625050633150532   1.0000000
B2   B   0.555507921795552   0.611257961072313   0.626097061009394   1.0000000
B2   B   0.388799184164788   0.110928551618625   0.625211517871594   1.0000000
B2   B   0.889068525884177   0.611200929608759   0.625151388877793   1.0000000
B2   B   0.055664446421424   0.611166856495582   0.124931676397515   1.0000000
B2   B   0.722246406468913   0.111075653023674   0.625134311633389   1.0000000
B2   B   0.222158453631577   0.111011015215415   0.124844769830190   1.0000000
B2   B   0.388799184164788   0.611203965879507   0.124788482128407   1.0000000
B2   B   0.722372193982127   0.611244770085810   0.124085382298338   1.0000000
B2   B   0.555520182856338   0.110968646315617   0.124806892051836   1.0000000
B2   B   0.388799184164788   0.611203965879507   0.625211517871594   1.0000000
B2   B   0.888931996177951   0.111132664755647   0.124911828584961   1.0000000
B2   B   0.222251128387762   0.777792230860548   0.625066748800795   1.0000000
B2   B   0.055570734689935   0.277791329538144   0.625050633150532   1.0000000
B2   B   0.388644687199694   0.277478625316291   0.625814755592521   1.0000000
B2   B   0.555520182856338   0.777884869874055   0.625193107948165   1.0000000
B2   B   0.889033970110921   0.777890370659183   0.625105187708869   1.0000000
B2   B   0.722284727584346   0.277698027001999   0.625304869335186   1.0000000
B2   B   0.055664446421424   0.777830923259179   0.124931676397515   1.0000000
B2   B   0.388856333815489   0.777815309477602   0.124927434458136   1.0000000
B2   B   0.222138932210793   0.277736132772064   0.124664117424273   1.0000000
B2   B   0.722284727584346   0.777920033915684   0.124695130664813   1.0000000
B2   B   0.555507921795552   0.277583294056575   0.123902938990606   1.0000000
B2   B   0.888959541711070   0.277776750440758   0.124914741382124   1.0000000
B2   B   0.055611757694978   0.444480314901064   0.625044336263889   1.0000000
B2   B   0.222226246310700   0.944400009752435   0.625039226316318   1.0000000
B2   B   0.555535442752299   0.944434388042813   0.625106641354754   1.0000000
B2   B   0.388644687199694   0.444499395216738   0.625814755592521   1.0000000
B2   B   0.888959541711070   0.944516124603648   0.625085258617877   1.0000000
B2   B   0.055611757694978   0.944464776127242   0.124955663736110   1.0000000
B2   B   0.722372193982127   0.444460757229653   0.625914617701662   1.0000000
B2   B   0.388856333815489   0.944374357671221   0.124927434458136   1.0000000
B2   B   0.222158453631577   0.444480771749498   0.124844769830190   1.0000000
B2   B   0.222226246310700   0.611159569891601   0.124960773683682   1.0000000
B2   B   0.555634825098454   0.444484079215891   0.123398986273596   1.0000000
B2   B   0.722246406468913   0.944504086778574   0.124865688366610   1.0000000
B2   B   0.889033970110921   0.444476932785074   0.124894812291131   1.0000000
B2   B   0.055664446421424   0.611166856495582   0.625068323602485   1.0000000
B2   B   0.222158453631577   0.111011015215415   0.625155230169811   1.0000000
B2   B   0.722372193982127   0.611244770085810   0.625914617701662   1.0000000
B2   B   0.555520182856338   0.110968646315617   0.625193107948165   1.0000000
B2   B   0.888931996177951   0.111132664755647   0.625088171415038   1.0000000


