data_1
_audit_creation_method   'vasp2cif'
_cell_length_a    14.93631414619966
_cell_length_b    14.936314146199727
_cell_length_c    13.341276283792837
_cell_angle_alpha    90.0
_cell_angle_beta    90.0
_cell_angle_gamma    119.99999999999984

_symmetry_space_group_name_H-M    'P 1'
loop_
_atom_site_label
_atom_site_type_symbol
_atom_site_fract_x
_atom_site_fract_y
_atom_site_fract_z
_atom_site_occupancy
Pb2   Pb   0.444444444444443   0.388888888888886   0.375000000000000   1.0000000
N2   N   0.111081364339906   0.055531400084860   0.124809909009194   1.0000000
N2   N   0.611145007220696   0.555596208987867   0.123848946996172   1.0000000
N2   N   0.444450035744949   0.055531400084860   0.124809909009194   1.0000000
N2   N   0.944452728388686   0.555558854615701   0.125159763803903   1.0000000
N2   N   0.777777777777779   0.055555555555557   0.124932432516395   1.0000000
N2   N   0.111111111111114   0.722222222222221   0.624651877148078   1.0000000
N2   N   0.444450035744949   0.722251968993420   0.625190090990851   1.0000000
N2   N   0.277737124345461   0.222188326112678   0.626151053003843   1.0000000
N2   N   0.777801933248436   0.722251968993420   0.625190090990851   1.0000000
N2   N   0.611124838908726   0.222208494424666   0.625265752236133   1.0000000
N2   N   0.944432010060470   0.222216058518475   0.625057265526457   1.0000000
N2   N   0.277774478717647   0.722227207106288   0.125159763803903   1.0000000
N2   N   0.111083655516005   0.222208494424666   0.124734247763837   1.0000000
N2   N   0.444451201767227   0.222188326112678   0.123848946996172   1.0000000
N2   N   0.611124838908726   0.722249677817348   0.124734247763837   1.0000000
N2   N   0.944452728388686   0.722227207106288   0.125159763803903   1.0000000
N2   N   0.777784048458004   0.222216058518475   0.124942734473558   1.0000000
N2   N   0.111106126227054   0.888880604944643   0.624840236196113   1.0000000
N2   N   0.444448451461592   0.888890892397462   0.625003291447562   1.0000000
N2   N   0.277737124345461   0.388882131566101   0.626151053003842   1.0000000
N2   N   0.611145007220696   0.388882131566101   0.626151053003842   1.0000000
N2   N   0.777784048458004   0.888901323272859   0.625057265526457   1.0000000
N2   N   0.944442440935866   0.388884881871737   0.625003291447562   1.0000000
N2   N   0.111081364339906   0.388883297588380   0.124809909009194   1.0000000
N2   N   0.277774478717647   0.888880604944643   0.125159763803903   1.0000000
N2   N   0.611117274814915   0.888901323272859   0.124942734473558   1.0000000
N2   N   0.444444444444443   0.388888888888886   0.123995847106566   1.0000000
N2   N   0.944442440935866   0.888890892397462   0.124996708552413   1.0000000
N2   N   0.777801933248452   0.388883297588380   0.124809909009194   1.0000000
N2   N   0.277767729223118   0.555565604110192   0.625218130608952   1.0000000
N2   N   0.111081364339906   0.055531400084860   0.625190090990851   1.0000000
N2   N   0.611145007220696   0.555596208987867   0.626151053003842   1.0000000
N2   N   0.444450035744949   0.055531400084860   0.625190090990851   1.0000000
N2   N   0.944452728388686   0.555558854615701   0.624840236196113   1.0000000
N2   N   0.111106126227054   0.555558854615701   0.125159763803903   1.0000000
N2   N   0.777777777777779   0.055555555555557   0.625067567483592   1.0000000
N2   N   0.277767729223118   0.055535458446268   0.124781869391055   1.0000000
N2   N   0.444451201767227   0.555596208987867   0.123848946996172   1.0000000
N2   N   0.777797874887100   0.555565604110192   0.124781869391055   1.0000000
N2   N   0.611117274814915   0.055549284875411   0.124942734473558   1.0000000
N2   N   0.444451201767227   0.555596208987867   0.626151053003843   1.0000000
N2   N   0.944432010060470   0.055549284875411   0.124942734473558   1.0000000
N2   N   0.277774478717647   0.722227207106288   0.624840236196113   1.0000000
N2   N   0.111083655516005   0.222208494424666   0.625265752236133   1.0000000
N2   N   0.444451201767227   0.222188326112680   0.626151053003843   1.0000000
N2   N   0.611124838908726   0.722249677817348   0.625265752236133   1.0000000
N2   N   0.944452728388686   0.722227207106288   0.624840236196113   1.0000000
N2   N   0.777784048458004   0.222216058518475   0.625057265526457   1.0000000
N2   N   0.111111111111114   0.722222222222221   0.125348122851907   1.0000000
N2   N   0.444450035744949   0.722251968993420   0.124809909009194   1.0000000
N2   N   0.277737124345461   0.222188326112678   0.123848946996172   1.0000000
N2   N   0.777801933248452   0.722251968993420   0.124809909009194   1.0000000
N2   N   0.611124838908726   0.222208494424666   0.124734247763837   1.0000000
N2   N   0.944432010060470   0.222216058518475   0.124942734473558   1.0000000
N2   N   0.111081364339906   0.388883297588380   0.625190090990851   1.0000000
N2   N   0.277774478717647   0.888880604944643   0.624840236196113   1.0000000
N2   N   0.611117274814915   0.888901323272859   0.625057265526457   1.0000000
N2   N   0.444444444444443   0.388888888888886   0.626004152893448   1.0000000
N2   N   0.944442440935866   0.888890892397462   0.625003291447562   1.0000000
N2   N   0.111106126227054   0.888880604944643   0.125159763803903   1.0000000
N2   N   0.777801933248452   0.388883297588380   0.625190090990851   1.0000000
N2   N   0.444448451461592   0.888890892397462   0.124996708552413   1.0000000
N2   N   0.277737124345461   0.388882131566101   0.123848946996171   1.0000000
N2   N   0.277767729223118   0.555565604110192   0.124781869391055   1.0000000
N2   N   0.611145007220696   0.388882131566101   0.123848946996172   1.0000000
N2   N   0.777784048458004   0.888901323272859   0.124942734473558   1.0000000
N2   N   0.944442440935866   0.388884881871737   0.124996708552413   1.0000000
N2   N   0.111106126227054   0.555558854615701   0.624840236196113   1.0000000
N2   N   0.277767729223118   0.055535458446268   0.625218130608952   1.0000000
N2   N   0.777797874887100   0.555565604110192   0.625218130608952   1.0000000
N2   N   0.611117274814915   0.055549284875411   0.625057265526457   1.0000000
N2   N   0.944432010060470   0.055549284875411   0.625057265526457   1.0000000
N2   N   0.053641649628043   0.109924856581045   0.375000000000000   1.0000000
N2   N   0.556356190576519   0.612712381152961   0.375000000000000   1.0000000
N2   N   0.387044212141089   0.099813916821314   0.375000000000000   1.0000000
N2   N   0.892773387138390   0.613053360235837   0.375000000000000   1.0000000
N2   N   0.722577374557718   0.110755958775655   0.375000000000000   1.0000000
N2   N   0.055555750141364   0.777777583191961   0.875000000000000   1.0000000
N2   N   0.388887220362703   0.777778243061393   0.875000000000000   1.0000000
N2   N   0.222220226634377   0.277776779983840   0.875000000000000   1.0000000
N2   N   0.722223985422514   0.777778616148784   0.875000000000000   1.0000000
N2   N   0.555556553349490   0.277776779983840   0.875000000000000   1.0000000
N2   N   0.888890350771407   0.277780701542794   0.875000000000000   1.0000000
N2   N   0.221476786932786   0.777405060133092   0.375000000000000   1.0000000
N2   N   0.053641649628043   0.277050126380333   0.375000000000000   1.0000000
N2   N   0.369469156726269   0.238938313452559   0.375000000000000   1.0000000
N2   N   0.556283206953030   0.779691683705319   0.375000000000000   1.0000000
N2   N   0.892080940447135   0.780375997718482   0.375000000000000   1.0000000
N2   N   0.723408476752290   0.277050126380333   0.375000000000000   1.0000000
N2   N   0.055555090271927   0.944442310634639   0.875000000000000   1.0000000
N2   N   0.388887220362703   0.944442310634639   0.875000000000000   1.0000000
N2   N   0.222221416984899   0.444444225250223   0.875000000000000   1.0000000
N2   N   0.555550511509180   0.444441922421254   0.875000000000000   1.0000000
N2   N   0.722221894145977   0.944443788291959   0.875000000000000   1.0000000
N2   N   0.888891022698689   0.444446112970626   0.875000000000000   1.0000000
N2   N   0.052957335614857   0.445038276062019   0.375000000000000   1.0000000
N2   N   0.220279973097492   0.940559946194938   0.375000000000000   1.0000000
N2   N   0.556129323955479   0.944731328644429   0.375000000000000   1.0000000
N2   N   0.369469156726269   0.463864176607060   0.375000000000000   1.0000000
N2   N   0.888602004688900   0.944731328644429   0.375000000000000   1.0000000
N2   N   0.733519416512038   0.446289121192240   0.375000000000000   1.0000000
N2   N   0.222221909272173   0.611111424061222   0.875000000000000   1.0000000
N2   N   0.055554717184577   0.111109347910843   0.875000000000000   1.0000000
N2   N   0.555556553349490   0.611113106698992   0.875000000000000   1.0000000
N2   N   0.388889108083106   0.111110525068002   0.875000000000000   1.0000000
N2   N   0.888889514788999   0.611111424061222   0.875000000000000   1.0000000
N2   N   0.055928273200277   0.611856546400592   0.375000000000000   1.0000000
N2   N   0.722221894145977   0.111111439187353   0.875000000000000   1.0000000
N2   N   0.212769704680208   0.099813916821314   0.375000000000000   1.0000000
N2   N   0.387044212141089   0.620563628653120   0.375000000000000   1.0000000
N2   N   0.733519416512038   0.620563628653120   0.375000000000000   1.0000000
N2   N   0.556283206953030   0.109924856581045   0.375000000000000   1.0000000
N2   N   0.388889108083106   0.611111916348457   0.875000000000000   1.0000000
N2   N   0.888178584217980   0.110755958775655   0.375000000000000   1.0000000
N2   N   0.222221833050617   0.777777583191961   0.875000000000000   1.0000000
N2   N   0.055554717184577   0.277778702607082   0.875000000000000   1.0000000
N2   N   0.388891410912074   0.277782821824174   0.875000000000000   1.0000000
N2   N   0.555554630726247   0.777778616148784   0.875000000000000   1.0000000
N2   N   0.888891022698689   0.777778243061393   0.875000000000000   1.0000000
N2   N   0.722223985422514   0.277778702607082   0.875000000000000   1.0000000
N2   N   0.055928273200275   0.777405060133092   0.375000000000000   1.0000000
N2   N   0.388295057271309   0.780375997718482   0.375000000000000   1.0000000
N2   N   0.220620952180355   0.276977142756855   0.375000000000000   1.0000000
N2   N   0.723408476752290   0.779691683705319   0.375000000000000   1.0000000
N2   N   0.556356190576519   0.276977142756855   0.375000000000000   1.0000000
N2   N   0.888602004688900   0.277204009377846   0.375000000000000   1.0000000
N2   N   0.055555090271927   0.444446112970626   0.875000000000000   1.0000000
N2   N   0.222221909272173   0.944443818544330   0.875000000000000   1.0000000
N2   N   0.555552631790555   0.944442982561921   0.875000000000000   1.0000000
N2   N   0.388891410912074   0.444441922421254   0.875000000000000   1.0000000
N2   N   0.888890350771407   0.944442982561921   0.875000000000000   1.0000000
N2   N   0.052957335614857   0.941252392886193   0.375000000000000   1.0000000
N2   N   0.722222808265326   0.444444225250223   0.875000000000000   1.0000000
N2   N   0.388295057271309   0.941252392886193   0.375000000000000   1.0000000
N2   N   0.212769704680208   0.446289121192240   0.375000000000000   1.0000000
N2   N   0.220279973097492   0.613053360235837   0.375000000000000   1.0000000
N2   N   0.594395019880791   0.463864176607060   0.375000000000000   1.0000000
N2   N   0.722577374557718   0.945154749115349   0.375000000000000   1.0000000
N2   N   0.892080940447135   0.445038276062019   0.375000000000000   1.0000000
N2   N   0.055555750141364   0.611111500282735   0.875000000000000   1.0000000
N2   N   0.222221416984899   0.111110525068000   0.875000000000000   1.0000000
N2   N   0.722222808265326   0.611111916348457   0.875000000000000   1.0000000
N2   N   0.555554630726247   0.111109347910843   0.875000000000000   1.0000000
N2   N   0.888889545041370   0.111111439187353   0.875000000000000   1.0000000
B2   B   0.104925751566953   0.050021011889200   0.375000000000000   1.0000000
B2   B   0.624904988269897   0.567253366473804   0.375000000000000   1.0000000
B2   B   0.445095260322268   0.050021011889200   0.375000000000000   1.0000000
B2   B   0.946136812211543   0.556028403426656   0.375000000000000   1.0000000
B2   B   0.777777777777779   0.055555555555557   0.375000000000000   1.0000000
B2   B   0.111111111111114   0.722222222222221   0.875000000000000   1.0000000
B2   B   0.444447116860352   0.722233517816310   0.875000000000000   1.0000000
B2   B   0.277759443969430   0.222210786578061   0.875000000000000   1.0000000
B2   B   0.777786400955981   0.722233517816310   0.875000000000000   1.0000000
B2   B   0.611120528396822   0.222212804936560   0.875000000000000   1.0000000
B2   B   0.944437683180190   0.222219401527748   0.875000000000000   1.0000000
B2   B   0.277304929906683   0.723441742118233   0.375000000000000   1.0000000
B2   B   0.109317837225065   0.221325585279192   0.375000000000000   1.0000000
B2   B   0.442348378203906   0.208428345063472   0.375000000000000   1.0000000
B2   B   0.612007748054093   0.724015496108299   0.375000000000000   1.0000000
B2   B   0.946136812211543   0.723441742118233   0.375000000000000   1.0000000
B2   B   0.778004496026248   0.221330078338438   0.375000000000000   1.0000000
B2   B   0.111107908016970   0.888885705202995   0.875000000000000   1.0000000
B2   B   0.444446444922277   0.888889889127810   0.875000000000000   1.0000000
B2   B   0.277759443969430   0.388881990724693   0.875000000000000   1.0000000
B2   B   0.611122546755267   0.388881990724693   0.875000000000000   1.0000000
B2   B   0.777781718347588   0.888895650153138   0.875000000000000   1.0000000
B2   B   0.944443444205518   0.388886888411051   0.875000000000000   1.0000000
B2   B   0.104925751566952   0.388238073011060   0.375000000000000   1.0000000
B2   B   0.277304929906683   0.887196521121786   0.375000000000000   1.0000000
B2   B   0.612003254994932   0.890007751021141   0.375000000000000   1.0000000
B2   B   0.944088706510786   0.889244626822542   0.375000000000000   1.0000000
B2   B   0.783312321444138   0.388238073011060   0.375000000000000   1.0000000
B2   B   0.277773276807626   0.555560056525720   0.875000000000000   1.0000000
B2   B   0.111099815517045   0.055546932377383   0.875000000000000   1.0000000
B2   B   0.611122546755267   0.555573889363931   0.875000000000000   1.0000000
B2   B   0.444447116860352   0.055546932377383   0.875000000000000   1.0000000
B2   B   0.944447628130333   0.555555536147297   0.875000000000000   1.0000000
B2   B   0.109891591215074   0.556028403426656   0.375000000000000   1.0000000
B2   B   0.777777777777779   0.055555555555557   0.875000000000000   1.0000000
B2   B   0.274906624911740   0.049813249823489   0.375000000000000   1.0000000
B2   B   0.442348378203906   0.567253366473804   0.375000000000000   1.0000000
B2   B   0.783520083509856   0.558426708421564   0.375000000000000   1.0000000
B2   B   0.612003254994932   0.055328837307089   0.375000000000000   1.0000000
B2   B   0.444451342608636   0.555573889363931   0.875000000000000   1.0000000
B2   B   0.943325582312187   0.055328837307089   0.375000000000000   1.0000000
B2   B   0.277777797186042   0.722225425316367   0.875000000000000   1.0000000
B2   B   0.111092276539790   0.222212804936560   0.875000000000000   1.0000000
B2   B   0.444451342608636   0.222210786578061   0.875000000000000   1.0000000
B2   B   0.611120528396822   0.722241056793520   0.875000000000000   1.0000000
B2   B   0.944447628130333   0.722225425316367   0.875000000000000   1.0000000
B2   B   0.777781718347588   0.222219401527748   0.875000000000000   1.0000000
B2   B   0.111111111111114   0.722222222222221   0.375000000000000   1.0000000
B2   B   0.445095260322268   0.728407581766388   0.375000000000000   1.0000000
B2   B   0.266079966859549   0.208428345063472   0.375000000000000   1.0000000
B2   B   0.783312321444138   0.728407581766388   0.375000000000000   1.0000000
B2   B   0.612007748054093   0.221325585279192   0.375000000000000   1.0000000
B2   B   0.943325582312187   0.221330078338438   0.375000000000000   1.0000000
B2   B   0.111099815517045   0.388886216472977   0.875000000000000   1.0000000
B2   B   0.277777797186042   0.888885705202995   0.875000000000000   1.0000000
B2   B   0.611113931805578   0.888895650153138   0.875000000000000   1.0000000
B2   B   0.444444444444443   0.388888888888886   0.875000000000000   1.0000000
B2   B   0.944443444205518   0.888889889127810   0.875000000000000   1.0000000
B2   B   0.109891591215072   0.887196521121786   0.375000000000000   1.0000000
B2   B   0.777786400955981   0.388886216472977   0.875000000000000   1.0000000
B2   B   0.445155920311640   0.889244626822542   0.375000000000000   1.0000000
B2   B   0.266079966859545   0.390984955129423   0.375000000000000   1.0000000
B2   B   0.274906624911740   0.558426708421564   0.375000000000000   1.0000000
B2   B   0.624904988269897   0.390984955129423   0.375000000000000   1.0000000
B2   B   0.778004496026248   0.890007751021141   0.375000000000000   1.0000000
B2   B   0.944088706510786   0.388177413021689   0.375000000000000   1.0000000
B2   B   0.111107908016970   0.555555536147297   0.875000000000000   1.0000000
B2   B   0.277773276807626   0.055546553615208   0.875000000000000   1.0000000
B2   B   0.777786779718084   0.555560056525720   0.875000000000000   1.0000000
B2   B   0.611113931805578   0.055551614985746   0.875000000000000   1.0000000
B2   B   0.944437683180190   0.055551614985746   0.875000000000000   1.0000000
B2   B   0.055513633813518   0.111076955407911   0.124881749031429   1.0000000
B2   B   0.555600953915748   0.611201907831546   0.124147477304903   1.0000000
B2   B   0.388852958137499   0.111003134313146   0.124558621416058   1.0000000
B2   B   0.888925954863510   0.611129644098423   0.125088215479642   1.0000000
B2   B   0.722228623386589   0.111104709946724   0.124980566989074   1.0000000
B2   B   0.055558095769353   0.777775237563956   0.624743937409016   1.0000000
B2   B   0.388886258520868   0.777799085452184   0.624978074385151   1.0000000
B2   B   0.222131425501799   0.277732379417563   0.625852522695083   1.0000000
B2   B   0.722256377925478   0.777819699519852   0.625118250968532   1.0000000
B2   B   0.555600953915748   0.277732379417563   0.625852522695083   1.0000000
B2   B   0.888885786346760   0.277771572693577   0.625004498052177   1.0000000
B2   B   0.222217141794618   0.777775237563956   0.125256062590962   1.0000000
B2   B   0.055513633813518   0.277770011738949   0.124881749031429   1.0000000
B2   B   0.388727765912649   0.277455531825311   0.123495587580921   1.0000000
B2   B   0.555563321594385   0.777819699519852   0.124881749031429   1.0000000
B2   B   0.888912826931267   0.777799085452184   0.125021925614846   1.0000000
B2   B   0.722256377925478   0.277770011738949   0.124881749031429   1.0000000
B2   B   0.055534247881178   0.944420506402062   0.624978074385151   1.0000000
B2   B   0.388886258520868   0.944420506402062   0.624978074385151   1.0000000
B2   B   0.222150176175615   0.444480375195830   0.625441378583909   1.0000000
B2   B   0.555877801508030   0.444605567420679   0.626504412419051   1.0000000
B2   B   0.722228623386589   0.944457246773290   0.625019433010931   1.0000000
B2   B   0.888912826931267   0.444447074812460   0.624978074385151   1.0000000
B2   B   0.055534247881178   0.444447074812460   0.125021925614846   1.0000000
B2   B   0.222203689234886   0.944407378469818   0.125088215479642   1.0000000
B2   B   0.555561760639759   0.944447546986568   0.124995501947772   1.0000000
B2   B   0.388727765912649   0.444605567420679   0.123495587580919   1.0000000
B2   B   0.888885786346760   0.944447546986568   0.124995501947772   1.0000000
B2   B   0.722330199020214   0.444480375195830   0.124558621416058   1.0000000
B2   B   0.222203689234886   0.611129644098423   0.624911784520380   1.0000000
B2   B   0.055513633813518   0.111076955407911   0.625118250968532   1.0000000
B2   B   0.555600953915748   0.611201907831546   0.625852522695083   1.0000000
B2   B   0.388852958137499   0.111003134313146   0.625441378583909   1.0000000
B2   B   0.888925954863510   0.611129644098423   0.624911784520380   1.0000000
B2   B   0.055558095769353   0.611116191538704   0.125256062590962   1.0000000
B2   B   0.722228623386589   0.111104709946724   0.625019433010931   1.0000000
B2   B   0.222150176175615   0.111003134313146   0.124558621416058   1.0000000
B2   B   0.388852958137499   0.611183157157724   0.124558621416058   1.0000000
B2   B   0.722330199020214   0.611183157157724   0.124558621416058   1.0000000
B2   B   0.555563321594385   0.111076955407911   0.124881749031429   1.0000000
B2   B   0.388852958137499   0.611183157157724   0.625441378583909   1.0000000
B2   B   0.888876086560038   0.111104709946724   0.124980566989074   1.0000000
B2   B   0.222217141794618   0.777775237563956   0.624743937409016   1.0000000
B2   B   0.055513633813518   0.277770011738949   0.625118250968532   1.0000000
B2   B   0.388727765912649   0.277455531825311   0.626504412419051   1.0000000
B2   B   0.555563321594385   0.777819699519852   0.625118250968532   1.0000000
B2   B   0.888912826931267   0.777799085452184   0.624978074385151   1.0000000
B2   B   0.722256377925478   0.277770011738948   0.625118250968532   1.0000000
B2   B   0.055558095769353   0.777775237563956   0.125256062590962   1.0000000
B2   B   0.388886258520868   0.777799085452184   0.125021925614846   1.0000000
B2   B   0.222131425501799   0.277732379417563   0.124147477304903   1.0000000
B2   B   0.722256377925478   0.777819699519852   0.124881749031429   1.0000000
B2   B   0.555600953915748   0.277732379417563   0.124147477304903   1.0000000
B2   B   0.888885786346760   0.277771572693577   0.124995501947772   1.0000000
B2   B   0.055534247881178   0.444447074812460   0.624978074385151   1.0000000
B2   B   0.222203689234886   0.944407378469818   0.624911784520380   1.0000000
B2   B   0.555561760639759   0.944447546986568   0.625004498052177   1.0000000
B2   B   0.388727765912649   0.444605567420679   0.626504412419051   1.0000000
B2   B   0.888885786346760   0.944447546986568   0.625004498052177   1.0000000
B2   B   0.055534247881178   0.944420506402062   0.125021925614846   1.0000000
B2   B   0.722330199020214   0.444480375195830   0.625441378583909   1.0000000
B2   B   0.388886258520868   0.944420506402062   0.125021925614846   1.0000000
B2   B   0.222150176175615   0.444480375195830   0.124558621416058   1.0000000
B2   B   0.222203689234886   0.611129644098423   0.125088215479642   1.0000000
B2   B   0.555877801508030   0.444605567420679   0.123495587580921   1.0000000
B2   B   0.722228623386589   0.944457246773290   0.124980566989074   1.0000000
B2   B   0.888912826931267   0.444447074812460   0.125021925614846   1.0000000
B2   B   0.055558095769353   0.611116191538704   0.624743937409016   1.0000000
B2   B   0.222150176175615   0.111003134313146   0.625441378583909   1.0000000
B2   B   0.722330199020214   0.611183157157724   0.625441378583909   1.0000000
B2   B   0.555563321594385   0.111076955407911   0.625118250968532   1.0000000
B2   B   0.888876086560038   0.111104709946724   0.625019433010931   1.0000000


