data_1
_audit_creation_method   'vasp2cif'
_cell_length_a    17.52789999999977
_cell_length_b    17.52789999999977
_cell_length_c    15.0
_cell_angle_alpha    90.0
_cell_angle_beta    90.0
_cell_angle_gamma    119.99999999999916

_symmetry_space_group_name_H-M    'P 1'
loop_
_atom_site_label
_atom_site_type_symbol
_atom_site_fract_x
_atom_site_fract_y
_atom_site_fract_z
_atom_site_occupancy
Ga2   Ga   0.495340656551455   0.504660745365542   0.111297928343042   1.0000000
B2   B   0.906129430473730   0.953383218337357   0.111008591801623   1.0000000
B2   B   0.904568238285128   0.095433782910868   0.111026332867859   1.0000000
B2   B   0.904099071101494   0.238106820260636   0.111035888839392   1.0000000
B2   B   0.904226099260834   0.380886152054805   0.110982310747804   1.0000000
B2   B   0.905016008139169   0.523710752932650   0.110995676092409   1.0000000
B2   B   0.906344514632623   0.666917317361533   0.111074010623045   1.0000000
B2   B   0.907515461318423   0.811104954143758   0.111043013866494   1.0000000
B2   B   0.048263426102888   0.951738595093115   0.111013583485822   1.0000000
B2   B   0.046618802858647   0.093872590722267   0.111008591801623   1.0000000
B2   B   0.046154665119875   0.237041111272358   0.110981834223528   1.0000000
B2   B   0.046704680472071   0.380276511263110   0.111000811303899   1.0000000
B2   B   0.047936065587653   0.523180817798477   0.110989051958066   1.0000000
B2   B   0.048782024870212   0.666039146809630   0.111049156415432   1.0000000
B2   B   0.048885849450616   0.809018560785744   0.111061249215781   1.0000000
B2   B   0.190983460410259   0.951116171745388   0.111061249215781   1.0000000
B2   B   0.188897067052245   0.092486559877574   0.111043013866494   1.0000000
B2   B   0.186691293252738   0.234178262024715   0.110980640632665   1.0000000
B2   B   0.188154581381174   0.378780990422314   0.111004860870796   1.0000000
B2   B   0.190823142720694   0.522366851685039   0.111035817499845   1.0000000
B2   B   0.191899059264226   0.665439896429237   0.111009665563381   1.0000000
B2   B   0.191589368870599   0.808412652325404   0.111016924311882   1.0000000
B2   B   0.333962874387369   0.951219996325792   0.111049156415432   1.0000000
B2   B   0.333084703835466   0.093657506563373   0.111074010623045   1.0000000
B2   B   0.328787581243635   0.232751564935118   0.111003086315410   1.0000000
B2   B   0.325713209002980   0.373920142609359   0.111028295876125   1.0000000
B2   B   0.333815962400427   0.520113447532905   0.111129333074877   1.0000000
B2   B   0.335493893377872   0.664508127819127   0.111057150490471   1.0000000
B2   B   0.334562124767761   0.808102961931777   0.111009665563381   1.0000000
B2   B   0.476821203398522   0.952065955608350   0.110989051958066   1.0000000
B2   B   0.476291268264349   0.094986013056827   0.110995676092409   1.0000000
B2   B   0.475472616229513   0.237514986864541   0.111028563878384   1.0000000
B2   B   0.466196820637956   0.370765371828806   0.111116947735556   1.0000000
B2   B   0.479888573664093   0.666186058796571   0.111129333074877   1.0000000
B2   B   0.477635169511959   0.809178878475309   0.111035817499845   1.0000000
B2   B   0.619725509932894   0.953297340723932   0.111000811303899   1.0000000
B2   B   0.619115869141199   0.095775921935163   0.110982310747804   1.0000000
B2   B   0.618878963046820   0.238793461196021   0.110989074969018   1.0000000
B2   B   0.618065366502570   0.381936654693433   0.111031376930655   1.0000000
B2   B   0.629236649367197   0.533805200559049   0.111116947735556   1.0000000
B2   B   0.626081878586644   0.674288812194019   0.111028295876125   1.0000000
B2   B   0.621221030773689   0.811847439814830   0.111004860870796   1.0000000
B2   B   0.762960909923645   0.953847356076128   0.110981834223528   1.0000000
B2   B   0.761895200935367   0.095902950094503   0.111035888839392   1.0000000
B2   B   0.761514090407717   0.238487930788287   0.111024214959037   1.0000000
B2   B   0.761208559999983   0.381123058149183   0.110989074969018   1.0000000
B2   B   0.762487034331463   0.524529404967485   0.111028563878384   1.0000000
B2   B   0.767250456260886   0.671214439953363   0.111003086315410   1.0000000
B2   B   0.765823759171296   0.813310727943259   0.110980640632665   1.0000000
N2   N   0.953943761717162   0.905718110797208   0.110997993144362   1.0000000
N2   N   0.952217848953037   0.047783552964969   0.111002262730881   1.0000000
N2   N   0.951320729918586   0.190221761376112   0.111001737957946   1.0000000
N2   N   0.951539742396289   0.333118947818477   0.110987235912304   1.0000000
N2   N   0.952541613945241   0.476018753592580   0.110952917851972   1.0000000
N2   N   0.953656456128548   0.618930687804945   0.111043479071735   1.0000000
N2   N   0.954193161910735   0.762294191796905   0.111061494157966   1.0000000
N2   N   0.095987903854532   0.904013498063467   0.111013867498560   1.0000000
N2   N   0.094283291120790   0.046057640200844   0.110997993144362   1.0000000
N2   N   0.092315177772973   0.188046060606375   0.110971509811912   1.0000000
N2   N   0.093054491954084   0.331917130659707   0.110965389805796   1.0000000
N2   N   0.095100970855119   0.475408801971264   0.110986832609795   1.0000000
N2   N   0.096323957931255   0.618370613954951   0.110997765462512   1.0000000
N2   N   0.096445794287058   0.761227528509836   0.111027972104389   1.0000000
N2   N   0.238773873408169   0.903555607630941   0.111027972104389   1.0000000
N2   N   0.237707210121100   0.045808240007271   0.111061494157966   1.0000000
N2   N   0.234153767587285   0.186205444407999   0.110984876608263   1.0000000
N2   N   0.231599176923626   0.327805429899957   0.110967184050141   1.0000000
N2   N   0.237059768030783   0.474061829961909   0.111043225023819   1.0000000
N2   N   0.239405364053869   0.617807578076290   0.111017540217696   1.0000000
N2   N   0.239216763952213   0.760784637965792   0.110986839202463   1.0000000
N2   N   0.381630787963048   0.903677443986744   0.110997765462512   1.0000000
N2   N   0.381070714113054   0.046344945789458   0.111043479071735   1.0000000
N2   N   0.379708204535953   0.188104949128490   0.111017314630834   1.0000000
N2   N   0.372194127870323   0.325395988235266   0.110997310962118   1.0000000
N2   N   0.372481030785787   0.465957055566512   0.111085295504916   1.0000000
N2   N   0.383111499947406   0.616889901970593   0.111121263984165   1.0000000
N2   N   0.382193823841708   0.760596037864136   0.111017540217696   1.0000000
N2   N   0.524592599945733   0.904900431062880   0.110986832609795   1.0000000
N2   N   0.523982648324417   0.047459787972764   0.110952917851972   1.0000000
N2   N   0.523548838694243   0.190192549525693   0.110982399139360   1.0000000
N2   N   0.522858730292588   0.333006084321105   0.111047299110578   1.0000000
N2   N   0.534044346350485   0.627520371132212   0.111085295504916   1.0000000
N2   N   0.525939571955088   0.762941633887229   0.111043225023819   1.0000000
N2   N   0.668084271257289   0.906946909963914   0.110965389805796   1.0000000
N2   N   0.666882454098520   0.048461659521717   0.110987235912304   1.0000000
N2   N   0.666466837821127   0.190903567199916   0.110982187094244   1.0000000
N2   N   0.666199615953909   0.333801785963088   0.110974009525733   1.0000000
N2   N   0.666995317595891   0.477142671624408   0.111047299110578   1.0000000
N2   N   0.674605413681731   0.627807274047676   0.110997310962118   1.0000000
N2   N   0.672195972017033   0.768402224994379   0.110967184050141   1.0000000
N2   N   0.811955341311623   0.907686224145026   0.110971509811912   1.0000000
N2   N   0.809779640541886   0.048680671999420   0.111001737957946   1.0000000
N2   N   0.809116694499787   0.190884707418212   0.111036408519041   1.0000000
N2   N   0.809097834718083   0.333534564095870   0.110982187094244   1.0000000
N2   N   0.809808852392305   0.476452563222747   0.110982399139360   1.0000000
N2   N   0.811896452789508   0.620293197382046   0.111017314630834   1.0000000
N2   N   0.813795957510000   0.765847634330721   0.110984876608263   1.0000000


