data_1
_audit_creation_method   'vasp2cif'
_cell_length_a    14.93631414619966
_cell_length_b    14.936314146199727
_cell_length_c    13.341276283792837
_cell_angle_alpha    90.0
_cell_angle_beta    90.0
_cell_angle_gamma    119.99999999999984

_symmetry_space_group_name_H-M    'P 1'
loop_
_atom_site_label
_atom_site_type_symbol
_atom_site_fract_x
_atom_site_fract_y
_atom_site_fract_z
_atom_site_occupancy
Sb2   Sb   0.496881967287389   0.415107650310285   0.375000000000000   1.0000000
N2   N   0.111306371001550   0.055635983700870   0.125003522424393   1.0000000
N2   N   0.611353007880481   0.555735918957969   0.120463524433628   1.0000000
N2   N   0.444684079854984   0.055676378322925   0.124752942072132   1.0000000
N2   N   0.944658160946318   0.555667222981434   0.125010666344500   1.0000000
N2   N   0.778025649863694   0.055679491598503   0.125064616277863   1.0000000
N2   N   0.111346905219086   0.722340119276280   0.624791598156152   1.0000000
N2   N   0.444684079854984   0.722341034865491   0.625247057928137   1.0000000
N2   N   0.277918343471264   0.222276309270110   0.627066491023704   1.0000000
N2   N   0.777976569229154   0.722321911380836   0.625734691600915   1.0000000
N2   N   0.611333229518933   0.222317799917318   0.626078322571480   1.0000000
N2   N   0.944665056918822   0.222339470003252   0.624853152423631   1.0000000
N2   N   0.278028271159554   0.722352827498716   0.125169939419752   1.0000000
N2   N   0.111295938067377   0.222314635700364   0.124683032898460   1.0000000
N2   N   0.444660934156337   0.222328057127463   0.122436342985127   1.0000000
N2   N   0.611333229518933   0.722348762935127   0.123921677428578   1.0000000
N2   N   0.944658160946318   0.722324271298455   0.125010666344500   1.0000000
N2   N   0.778011764513795   0.222336908480786   0.124990198624475   1.0000000
N2   N   0.111338202561220   0.888991957215767   0.624780474139529   1.0000000
N2   N   0.444698339670512   0.889015836501783   0.624862208322779   1.0000000
N2   N   0.277918343471264   0.388975367534497   0.627066491023703   1.0000000
N2   N   0.611353007880481   0.388950422255666   0.629536475566422   1.0000000
N2   N   0.778011764513795   0.889008189366368   0.625009801375659   1.0000000
N2   N   0.944658723749484   0.389009782877912   0.624801259314115   1.0000000
N2   N   0.111306371001550   0.389003720633937   0.125003522424393   1.0000000
N2   N   0.278028271159554   0.889008776994233   0.125169939419749   1.0000000
N2   N   0.611361212026079   0.889020040991221   0.125011166624207   1.0000000
N2   N   0.444404227445310   0.388868780389381   0.118416704135340   1.0000000
N2   N   0.944658723749484   0.888982274204942   0.125198740685754   1.0000000
N2   N   0.777976569229154   0.388987991181814   0.124265308399108   1.0000000
N2   N   0.277999871041377   0.555674446023814   0.625366246812327   1.0000000
N2   N   0.111306371001550   0.055635983700870   0.624996477575552   1.0000000
N2   N   0.611353007880481   0.555735918957968   0.629536475566419   1.0000000
N2   N   0.444684079854984   0.055676378322925   0.625247057928137   1.0000000
N2   N   0.944658160946318   0.555667222981434   0.624989333655400   1.0000000
N2   N   0.111338202561220   0.555679578678729   0.125219525860433   1.0000000
N2   N   0.778025649863694   0.055679491598503   0.624935383722226   1.0000000
N2   N   0.277999871041381   0.055658758350991   0.124633753187536   1.0000000
N2   N   0.444660934156337   0.555666210362064   0.122436342985108   1.0000000
N2   N   0.777967366515767   0.555650349924306   0.123589941479476   1.0000000
N2   N   0.611361212026079   0.055674504368171   0.125011166624207   1.0000000
N2   N   0.444660934156337   0.555666210362064   0.627563657014919   1.0000000
N2   N   0.944665056918822   0.055658920248786   0.125146847576404   1.0000000
N2   N   0.278028271159554   0.722352827498716   0.624830060580368   1.0000000
N2   N   0.111295938067377   0.222314635700364   0.625316967101531   1.0000000
N2   N   0.444660934156337   0.222328057127463   0.627563657014919   1.0000000
N2   N   0.611333229518933   0.722348762935127   0.626078322571470   1.0000000
N2   N   0.944658160946318   0.722324271298455   0.624989333655400   1.0000000
N2   N   0.778011764513795   0.222336908480786   0.625009801375659   1.0000000
N2   N   0.111346905219086   0.722340119276280   0.125208401843786   1.0000000
N2   N   0.444684079854984   0.722341034865491   0.124752942072138   1.0000000
N2   N   0.277918343471264   0.222276309270110   0.122933508976428   1.0000000
N2   N   0.777976569229154   0.722321911380836   0.124265308399108   1.0000000
N2   N   0.611333229518933   0.222317799917318   0.123921677428577   1.0000000
N2   N   0.944665056918822   0.222339470003252   0.125146847576404   1.0000000
N2   N   0.111306371001549   0.389003720633937   0.624996477575552   1.0000000
N2   N   0.278028271159554   0.889008776994233   0.624830060580368   1.0000000
N2   N   0.611361212026079   0.889020040991221   0.624988833375656   1.0000000
N2   N   0.444404227445311   0.388868780389380   0.631583295864698   1.0000000
N2   N   0.944658723749484   0.888982274204942   0.624801259314115   1.0000000
N2   N   0.111338202561220   0.888991957215767   0.125219525860433   1.0000000
N2   N   0.777976569229154   0.388987991181814   0.625734691600914   1.0000000
N2   N   0.444698339670512   0.889015836501783   0.125137791677256   1.0000000
N2   N   0.277918343471264   0.388975367534497   0.122933508976425   1.0000000
N2   N   0.277999871041372   0.555674446023814   0.124633753187536   1.0000000
N2   N   0.611353007880481   0.388950422255666   0.120463524433629   1.0000000
N2   N   0.778011764513795   0.889008189366368   0.124990198624475   1.0000000
N2   N   0.944658723749484   0.389009782877912   0.125198740685754   1.0000000
N2   N   0.111338202561220   0.555679578678729   0.624780474139529   1.0000000
N2   N   0.277999871041381   0.055658758350989   0.625366246812327   1.0000000
N2   N   0.777967366515767   0.555650349924306   0.626410058520627   1.0000000
N2   N   0.611361212026079   0.055674504368171   0.624988833375656   1.0000000
N2   N   0.944665056918822   0.055658920248786   0.624853152423631   1.0000000
N2   N   0.058390991417296   0.112725021770907   0.375000000000000   1.0000000
N2   N   0.555187218887035   0.620761952629463   0.375000000000000   1.0000000
N2   N   0.387387332953074   0.103749402531286   0.375000000000000   1.0000000
N2   N   0.886695788571096   0.610014560952414   0.375000000000000   1.0000000
N2   N   0.724187227589581   0.111149539187470   0.375000000000000   1.0000000
N2   N   0.055410168889505   0.777704064361389   0.875000000000000   1.0000000
N2   N   0.388741287205499   0.777706539536366   0.875000000000000   1.0000000
N2   N   0.222081119186164   0.277707226259770   0.875000000000000   1.0000000
N2   N   0.722071906479790   0.777695587138690   0.875000000000000   1.0000000
N2   N   0.555401335095312   0.277697151250778   0.875000000000000   1.0000000
N2   N   0.888742433656202   0.277710201336726   0.875000000000000   1.0000000
N2   N   0.220403216142353   0.776868274737787   0.375000000000000   1.0000000
N2   N   0.058390991417286   0.278999302979740   0.375000000000000   1.0000000
N2   N   0.389471449859414   0.266989039647016   0.375000000000000   1.0000000
N2   N   0.555958025483601   0.782315406537822   0.375000000000000   1.0000000
N2   N   0.889061333718288   0.778538517339083   0.375000000000000   1.0000000
N2   N   0.723815395614805   0.276168148141966   0.375000000000000   1.0000000
N2   N   0.055408341141086   0.944366311290522   0.875000000000000   1.0000000
N2   N   0.388741287205499   0.944368081002593   0.875000000000000   1.0000000
N2   N   0.222075137470133   0.444380085456036   0.875000000000000   1.0000000
N2   N   0.555415219034953   0.444374276184141   0.875000000000000   1.0000000
N2   N   0.722071600840585   0.944365875088008   0.875000000000000   1.0000000
N2   N   0.888742945339032   0.444375750313010   0.875000000000000   1.0000000
N2   N   0.055934212333394   0.444823974906282   0.375000000000000   1.0000000
N2   N   0.220617629685918   0.942021481796751   0.375000000000000   1.0000000
N2   N   0.556097947129928   0.944715640231624   0.375000000000000   1.0000000
N2   N   0.389471449859413   0.455815743545643   0.375000000000000   1.0000000
N2   N   0.890992688525476   0.946304677380535   0.375000000000000   1.0000000
N2   N   0.722085480836312   0.442634509200254   0.375000000000000   1.0000000
N2   N   0.222073670287344   0.611042324432373   0.875000000000000   1.0000000
N2   N   0.055412592243540   0.111036112672185   0.875000000000000   1.0000000
N2   N   0.555401335095312   0.611037517177820   0.875000000000000   1.0000000
N2   N   0.388736709395547   0.111025427408602   0.875000000000000   1.0000000
N2   N   0.888749325530036   0.611041329431724   0.875000000000000   1.0000000
N2   N   0.053834650707082   0.610555125580596   0.375000000000000   1.0000000
N2   N   0.722071600840585   0.111039059085961   0.875000000000000   1.0000000
N2   N   0.222975391368360   0.109836206248690   0.375000000000000   1.0000000
N2   N   0.387387332953074   0.616971263755130   0.375000000000000   1.0000000
N2   N   0.722085480836312   0.612784304969378   0.375000000000000   1.0000000
N2   N   0.555958025483610   0.106975952279074   0.375000000000000   1.0000000
N2   N   0.388736709395547   0.611044615320194   0.875000000000000   1.0000000
N2   N   0.891529697022046   0.112431515177710   0.375000000000000   1.0000000
N2   N   0.222076939632874   0.777705136483096   0.875000000000000   1.0000000
N2   N   0.055412592243540   0.277709812904809   0.875000000000000   1.0000000
N2   N   0.388740807084544   0.277688596393805   0.875000000000000   1.0000000
N2   N   0.555403140990652   0.777700322407949   0.875000000000000   1.0000000
N2   N   0.888742945339034   0.777700528359572   0.875000000000000   1.0000000
N2   N   0.722071906479790   0.277709652674577   0.875000000000000   1.0000000
N2   N   0.053834650707082   0.776612858459640   0.375000000000000   1.0000000
N2   N   0.387798178802484   0.779272161187256   0.375000000000000   1.0000000
N2   N   0.226738458502763   0.280035895918038   0.375000000000000   1.0000000
N2   N   0.723815395614805   0.780980580806044   0.375000000000000   1.0000000
N2   N   0.555187218887035   0.267758599590712   0.375000000000000   1.0000000
N2   N   0.890992688525476   0.278021344478205   0.375000000000000   1.0000000
N2   N   0.055408341141086   0.444375363183973   0.875000000000000   1.0000000
N2   N   0.222073670287344   0.944364679188204   0.875000000000000   1.0000000
N2   N   0.555404624646411   0.944368978989977   0.875000000000000   1.0000000
N2   N   0.388740807084544   0.444385544024137   0.875000000000000   1.0000000
N2   N   0.888742433656202   0.944365565652785   0.875000000000000   1.0000000
N2   N   0.055934212333396   0.944443570760430   0.375000000000000   1.0000000
N2   N   0.722083224470737   0.444378690199168   0.875000000000000   1.0000000
N2   N   0.387798178802484   0.941859350948566   0.375000000000000   1.0000000
N2   N   0.222975391368359   0.446472518452931   0.375000000000000   1.0000000
N2   N   0.220617629685918   0.611929481222574   0.375000000000000   1.0000000
N2   N   0.724187227589581   0.946371021735699   0.375000000000000   1.0000000
N2   N   0.889061333718288   0.443856149712685   0.375000000000000   1.0000000
N2   N   0.055410168889505   0.611039437861740   0.875000000000000   1.0000000
N2   N   0.222075137470133   0.111028385347396   0.875000000000000   1.0000000
N2   N   0.722083224470737   0.611037867605260   0.875000000000000   1.0000000
N2   N   0.555403140990652   0.111036151915955   0.875000000000000   1.0000000
N2   N   0.888743282556549   0.111038307944989   0.875000000000000   1.0000000
B2   B   0.112356284265281   0.055651009870285   0.375000000000000   1.0000000
B2   B   0.613970745047998   0.571064224936822   0.375000000000000   1.0000000
B2   B   0.444494665327695   0.051321500886991   0.375000000000000   1.0000000
B2   B   0.943030770127267   0.554923367878897   0.375000000000000   1.0000000
B2   B   0.780500401322218   0.056916867327769   0.375000000000000   1.0000000
B2   B   0.110962420651964   0.722147876992623   0.875000000000000   1.0000000
B2   B   0.444289838116467   0.722134769514334   0.875000000000000   1.0000000
B2   B   0.277653003923277   0.222161531160178   0.875000000000000   1.0000000
B2   B   0.777616328919869   0.722121532444620   0.875000000000000   1.0000000
B2   B   0.610945531746908   0.222162456625349   0.875000000000000   1.0000000
B2   B   0.944310057907545   0.222157638501283   0.875000000000000   1.0000000
B2   B   0.276589236284077   0.722609280456418   0.375000000000000   1.0000000
B2   B   0.115142858161619   0.224238095747458   0.375000000000000   1.0000000
B2   B   0.443287979499166   0.212401503549471   0.375000000000000   1.0000000
B2   B   0.612931776812325   0.729885888720609   0.375000000000000   1.0000000
B2   B   0.943030770127267   0.721440735581751   0.375000000000000   1.0000000
B2   B   0.780189666857059   0.221858715373456   0.375000000000000   1.0000000
B2   B   0.110965301623557   0.888816913459106   0.875000000000000   1.0000000
B2   B   0.444293630107422   0.888813481720502   0.875000000000000   1.0000000
B2   B   0.277653003923277   0.388824806096456   0.875000000000000   1.0000000
B2   B   0.610939286520009   0.388833535106885   0.875000000000000   1.0000000
B2   B   0.777625100102314   0.888800059070584   0.875000000000000   1.0000000
B2   B   0.944299194695521   0.388822533964422   0.875000000000000   1.0000000
B2   B   0.112356284265281   0.390038607728407   0.375000000000000   1.0000000
B2   B   0.276589236284077   0.887313289161009   0.375000000000000   1.0000000
B2   B   0.612964806297949   0.891872211878379   0.375000000000000   1.0000000
B2   B   0.945323303568486   0.889801209538334   0.375000000000000   1.0000000
B2   B   0.778742803050190   0.387357434528868   0.375000000000000   1.0000000
B2   B   0.277634874306872   0.555478319542282   0.875000000000000   1.0000000
B2   B   0.110977724661462   0.055489437838787   0.875000000000000   1.0000000
B2   B   0.610939286520009   0.555439084746170   0.875000000000000   1.0000000
B2   B   0.444289838116467   0.055488401935341   0.875000000000000   1.0000000
B2   B   0.944294528938328   0.555484896879477   0.875000000000000   1.0000000
B2   B   0.109951489931358   0.555706789148540   0.375000000000000   1.0000000
B2   B   0.777631071976802   0.055482202655081   0.875000000000000   1.0000000
B2   B   0.276745393146526   0.052442123023382   0.375000000000000   1.0000000
B2   B   0.443287979499166   0.564219809282951   0.375000000000000   1.0000000
B2   B   0.775603351508202   0.554468342420903   0.375000000000000   1.0000000
B2   B   0.612964806297950   0.054425927752872   0.375000000000000   1.0000000
B2   B   0.444292968283593   0.555465511608939   0.875000000000000   1.0000000
B2   B   0.947367951358280   0.057416513207475   0.375000000000000   1.0000000
B2   B   0.277629867238589   0.722145296854324   0.875000000000000   1.0000000
B2   B   0.110989781520788   0.222161557427045   0.875000000000000   1.0000000
B2   B   0.444292968283592   0.222160790007765   0.875000000000000   1.0000000
B2   B   0.610945531746908   0.722116408454782   0.875000000000000   1.0000000
B2   B   0.944294528938328   0.722142965392191   0.875000000000000   1.0000000
B2   B   0.777625100102314   0.222158374365268   0.875000000000000   1.0000000
B2   B   0.109473987620459   0.721403660476940   0.375000000000000   1.0000000
B2   B   0.444494665327695   0.726506497773819   0.375000000000000   1.0000000
B2   B   0.280328713153532   0.221476858756729   0.375000000000000   1.0000000
B2   B   0.778742803050190   0.724718701855008   0.375000000000000   1.0000000
B2   B   0.612931776812325   0.216379221424889   0.375000000000000   1.0000000
B2   B   0.947367951358280   0.223284771484212   0.375000000000000   1.0000000
B2   B   0.110977724661462   0.388821620156000   0.875000000000000   1.0000000
B2   B   0.277629867238589   0.888817903717592   0.875000000000000   1.0000000
B2   B   0.610954646762301   0.888802490427838   0.875000000000000   1.0000000
B2   B   0.444318946280636   0.388826139807024   0.875000000000000   1.0000000
B2   B   0.944299194695521   0.888809994064426   0.875000000000000   1.0000000
B2   B   0.109951489931359   0.887578034116262   0.375000000000000   1.0000000
B2   B   0.777616328919869   0.388828129808595   0.875000000000000   1.0000000
B2   B   0.444641255055922   0.888987294194499   0.375000000000000   1.0000000
B2   B   0.280328713153532   0.392185187730163   0.375000000000000   1.0000000
B2   B   0.276745393146526   0.557636603456564   0.375000000000000   1.0000000
B2   B   0.613970745047999   0.376239853444629   0.375000000000000   1.0000000
B2   B   0.780189666857059   0.891664284816695   0.375000000000000   1.0000000
B2   B   0.945323303568486   0.388855427363533   0.375000000000000   1.0000000
B2   B   0.110965301623557   0.555481721497913   0.875000000000000   1.0000000
B2   B   0.277634874306872   0.055489888098101   0.875000000000000   1.0000000
B2   B   0.777615733205730   0.555474533269498   0.875000000000000   1.0000000
B2   B   0.610954646762301   0.055485489667708   0.875000000000000   1.0000000
B2   B   0.944310057907545   0.055485752739555   0.875000000000000   1.0000000
B2   B   0.055791828388791   0.111234284486352   0.124962483137460   1.0000000
B2   B   0.555769904920171   0.611154942562943   0.122095418143401   1.0000000
B2   B   0.389124147651166   0.111274889039208   0.124048550085903   1.0000000
B2   B   0.889043266184253   0.611188299758829   0.124565536784593   1.0000000
B2   B   0.722465331306637   0.111227987757444   0.124980233881300   1.0000000
B2   B   0.055787449522636   0.777894572816904   0.624861747898720   1.0000000
B2   B   0.389141391771916   0.777896276309728   0.624961433442559   1.0000000
B2   B   0.222426042526006   0.277879687929643   0.626498843525728   1.0000000
B2   B   0.722423392845394   0.777884879247045   0.625691901528909   1.0000000
B2   B   0.555769904920171   0.277948295690471   0.627904581856756   1.0000000
B2   B   0.889124253952298   0.277891823393092   0.624913934677420   1.0000000
B2   B   0.222478888332617   0.777906110832969   0.125172111803384   1.0000000
B2   B   0.055791828388794   0.277890877235715   0.124962483137460   1.0000000
B2   B   0.389030048998266   0.277882386850156   0.121114309141666   1.0000000
B2   B   0.555782513991461   0.777887767495519   0.124554779214922   1.0000000
B2   B   0.889089218264012   0.777875874929274   0.124819844612605   1.0000000
B2   B   0.722423392845394   0.277871846931663   0.124308098470875   1.0000000
B2   B   0.055788997057000   0.944560985851047   0.624833116109519   1.0000000
B2   B   0.389141391771916   0.944578448795447   0.624961433442559   1.0000000
B2   B   0.222437214030793   0.444532066187849   0.625687221270390   1.0000000
B2   B   0.555666858297505   0.444500095815417   0.629135353486268   1.0000000
B2   B   0.722465331306637   0.944570676882483   0.625019766118635   1.0000000
B2   B   0.889089218264012   0.444546676668199   0.625180155387567   1.0000000
B2   B   0.055788997057000   0.444561344539128   0.125166883890483   1.0000000
B2   B   0.222471356901953   0.944586032628347   0.125053140283414   1.0000000
B2   B   0.555808845443281   0.944571089388143   0.125041889771239   1.0000000
B2   B   0.389030048998266   0.444480995481483   0.121114309141672   1.0000000
B2   B   0.889124253952298   0.944565763892343   0.125086065322505   1.0000000
B2   B   0.722302198371400   0.444492201555349   0.122641045375774   1.0000000
B2   B   0.222471356901953   0.611218657606818   0.624946859716618   1.0000000
B2   B   0.055791828388791   0.111234284486352   0.625037516862605   1.0000000
B2   B   0.555769904920171   0.611154942562943   0.627904581856756   1.0000000
B2   B   0.389124147651166   0.111274889039210   0.625951449914182   1.0000000
B2   B   0.889043266184253   0.611188299758829   0.625434463215425   1.0000000
B2   B   0.055787449522636   0.611226210038953   0.125138252101371   1.0000000
B2   B   0.722465331306637   0.111227987757435   0.625019766118635   1.0000000
B2   B   0.222437214030793   0.111238481176260   0.124312778729661   1.0000000
B2   B   0.389124147651166   0.611182591945138   0.124048550085903   1.0000000
B2   B   0.722302198371400   0.611143330149408   0.122641045375774   1.0000000
B2   B   0.555782513991461   0.111228079829479   0.124554779214922   1.0000000
B2   B   0.389124147651169   0.611182591945138   0.625951449914182   1.0000000
B2   B   0.889137500032946   0.111235416683121   0.125087849829859   1.0000000
B2   B   0.222478888332617   0.777906110832969   0.624827888196588   1.0000000
B2   B   0.055791828388794   0.277890877235715   0.625037516862605   1.0000000
B2   B   0.389030048998266   0.277882386850173   0.628885690858150   1.0000000
B2   B   0.555782513991461   0.777887767495519   0.625445220785012   1.0000000
B2   B   0.889089218264012   0.777875874929274   0.625180155387567   1.0000000
B2   B   0.722423392845394   0.277871846931663   0.625691901528909   1.0000000
B2   B   0.055787449522634   0.777894572816904   0.125138252101371   1.0000000
B2   B   0.389141391771916   0.777896276309728   0.125038566557499   1.0000000
B2   B   0.222426042526006   0.277879687929643   0.123501156474226   1.0000000
B2   B   0.722423392845394   0.777884879247045   0.124308098470875   1.0000000
B2   B   0.555769904920171   0.277948295690471   0.122095418143408   1.0000000
B2   B   0.889124253952298   0.277891823393092   0.125086065322505   1.0000000
B2   B   0.055788997057000   0.444561344539128   0.624833116109519   1.0000000
B2   B   0.222471356901953   0.944586032628347   0.624946859716618   1.0000000
B2   B   0.555808845443281   0.944571089388143   0.624958110228754   1.0000000
B2   B   0.389030048998266   0.444480995481459   0.628885690858150   1.0000000
B2   B   0.889124253952298   0.944565763892343   0.624913934677420   1.0000000
B2   B   0.055788997056999   0.944560985851047   0.125166883890483   1.0000000
B2   B   0.722302198371400   0.444492201555349   0.627358954624332   1.0000000
B2   B   0.389141391771916   0.944578448795447   0.125038566557499   1.0000000
B2   B   0.222437214030793   0.444532066187849   0.124312778729661   1.0000000
B2   B   0.222471356901952   0.611218657606818   0.125053140283414   1.0000000
B2   B   0.555666858297505   0.444500095815417   0.120864646513846   1.0000000
B2   B   0.722465331306637   0.944570676882483   0.124980233881300   1.0000000
B2   B   0.889089218264012   0.444546676668199   0.124819844612605   1.0000000
B2   B   0.055787449522634   0.611226210039134   0.624861747898726   1.0000000
B2   B   0.222437214030793   0.111238481176259   0.625687221270390   1.0000000
B2   B   0.722302198371400   0.611143330149408   0.627358954624325   1.0000000
B2   B   0.555782513991461   0.111228079829479   0.625445220785012   1.0000000
B2   B   0.889137500032946   0.111235416683121   0.624912150170252   1.0000000


