data_1
_audit_creation_method   'vasp2cif'
_cell_length_a    17.52789999999977
_cell_length_b    17.52789999999977
_cell_length_c    15.0
_cell_angle_alpha    90.0
_cell_angle_beta    90.0
_cell_angle_gamma    119.99999999999916

_symmetry_space_group_name_H-M    'P 1'
loop_
_atom_site_label
_atom_site_type_symbol
_atom_site_fract_x
_atom_site_fract_y
_atom_site_fract_z
_atom_site_occupancy
Ga2   Ga   0.416159173316585   0.480504410656964   0.110979511970120   1.0000000
B2   B   0.908920136034416   0.955131442496941   0.110882869050628   1.0000000
B2   B   0.906902592027921   0.097228575588789   0.110957051067715   1.0000000
B2   B   0.905825739114595   0.239895369227406   0.110739614167292   1.0000000
B2   B   0.904794085961799   0.382382873955993   0.110679956763539   1.0000000
B2   B   0.903597614269410   0.524598987478533   0.110869177199151   1.0000000
B2   B   0.907178385125539   0.667505607807519   0.110885733409561   1.0000000
B2   B   0.910047649842459   0.812491633340778   0.110664174712279   1.0000000
B2   B   0.049609346201564   0.951164158221051   0.110690890805308   1.0000000
B2   B   0.047915775392161   0.093378070000031   0.110947780719387   1.0000000
B2   B   0.048002888848534   0.237784371054449   0.110725170117360   1.0000000
B2   B   0.048087616854944   0.381528210623916   0.110493202585697   1.0000000
B2   B   0.047707983588161   0.524007889281120   0.110601217619654   1.0000000
B2   B   0.049140543679523   0.666102590906936   0.110975779146553   1.0000000
B2   B   0.049802035973702   0.808519318100328   0.110858622046018   1.0000000
B2   B   0.191368714848352   0.948918919746529   0.110526374416026   1.0000000
B2   B   0.189037526056441   0.089293872202981   0.110731659702043   1.0000000
B2   B   0.186524858864860   0.230561719672732   0.110792810862175   1.0000000
B2   B   0.190260158247870   0.379294835228129   0.110131631078681   1.0000000
B2   B   0.190916574881755   0.523904641268039   0.110387276763920   1.0000000
B2   B   0.192499226193663   0.666064704534398   0.110688515130946   1.0000000
B2   B   0.192272785805980   0.807650702225058   0.110874588994508   1.0000000
B2   B   0.334792259434807   0.949395222362655   0.110687790595110   1.0000000
B2   B   0.332941765022681   0.088796094172682   0.110633481036103   1.0000000
B2   B   0.328324336670504   0.224274477411016   0.111475781368927   1.0000000
B2   B   0.322398547893733   0.357236952130647   0.108597887586729   1.0000000
B2   B   0.332148046433517   0.529768016248294   0.111903035796908   1.0000000
B2   B   0.336991152251061   0.668632210064159   0.110672343438117   1.0000000
B2   B   0.335955386077815   0.808821771218641   0.110823679324767   1.0000000
B2   B   0.478678433987344   0.951621372211249   0.110822194993897   1.0000000
B2   B   0.477348858652133   0.092874798684447   0.110577295926494   1.0000000
B2   B   0.475254267050447   0.232595035292599   0.110776681799532   1.0000000
B2   B   0.468483745494058   0.365942899429509   0.110619848966891   1.0000000
B2   B   0.485066777060333   0.667229263720371   0.111636365484873   1.0000000
B2   B   0.480571615090231   0.809760750766806   0.110792277526449   1.0000000
B2   B   0.622350393069602   0.955343056796545   0.110819550399017   1.0000000
B2   B   0.620921501275151   0.097018873205189   0.110683573918463   1.0000000
B2   B   0.619672936787607   0.239776261408029   0.110574493940452   1.0000000
B2   B   0.617372185115509   0.383996596313269   0.110917227317235   1.0000000
B2   B   0.618894250045960   0.539835631813492   0.111363849764226   1.0000000
B2   B   0.635008717185923   0.681637555237546   0.110139207820225   1.0000000
B2   B   0.625226188279159   0.815319564949758   0.110342950016495   1.0000000
B2   B   0.766058659239108   0.956598809796948   0.110761274779083   1.0000000
B2   B   0.764107837043195   0.098091022884412   0.110840703435729   1.0000000
B2   B   0.762820400857560   0.240445254978772   0.110656976638417   1.0000000
B2   B   0.761157674851836   0.383179335055043   0.110775344537494   1.0000000
B2   B   0.758456533646255   0.526321157803683   0.110884774226589   1.0000000
B2   B   0.770945829880580   0.674108843266539   0.109914684220835   1.0000000
B2   B   0.770461603904144   0.817133655825468   0.109917053736892   1.0000000
N2   N   0.955868722370883   0.906668413273748   0.110890504745295   1.0000000
N2   N   0.954382996054076   0.049240672120409   0.110997284361106   1.0000000
N2   N   0.953799489232455   0.192251133136893   0.110800975787377   1.0000000
N2   N   0.953263329251544   0.334964289905869   0.110629473075783   1.0000000
N2   N   0.952175832078250   0.477228368108298   0.110711417035291   1.0000000
N2   N   0.953813757918856   0.619353262175487   0.110992907629853   1.0000000
N2   N   0.955222855772677   0.762530162290866   0.110874385010194   1.0000000
N2   N   0.096885469977774   0.903198887293667   0.110615004490782   1.0000000
N2   N   0.095428992326565   0.045443065765678   0.110584058447300   1.0000000
N2   N   0.093849372255282   0.187939481652144   0.111027086167722   1.0000000
N2   N   0.096332625342970   0.333568743758848   0.110397918008816   1.0000000
N2   N   0.096182353528354   0.476570631917510   0.110318251479112   1.0000000
N2   N   0.097133409893642   0.618738046931691   0.110780253990417   1.0000000
N2   N   0.097275211489587   0.760824842553274   0.110950437812941   1.0000000
N2   N   0.239769035927003   0.902301922628819   0.110673610902132   1.0000000
N2   N   0.238213455636760   0.043459824878358   0.110417021628515   1.0000000
N2   N   0.235002260905248   0.183578735174003   0.111245334725623   1.0000000
N2   N   0.233410910657454   0.326027197288992   0.109572599724360   1.0000000
N2   N   0.239481367346074   0.475727374086822   0.110616398542648   1.0000000
N2   N   0.241320003051268   0.618861225949018   0.110407165248547   1.0000000
N2   N   0.240656204780756   0.760703885395377   0.110875797117592   1.0000000
N2   N   0.383423002546737   0.903296381361071   0.110867689344432   1.0000000
N2   N   0.382166738601391   0.043994428971559   0.110485821475001   1.0000000
N2   N   0.380032624206870   0.183122346458801   0.111080249423367   1.0000000
N2   N   0.374897279309159   0.318291929244953   0.111080840384911   1.0000000
N2   N   0.387034265142370   0.621668418870451   0.111297730770780   1.0000000
N2   N   0.384860232425942   0.762334828351418   0.110697733834832   1.0000000
N2   N   0.527059255935753   0.904880022413219   0.110807356011565   1.0000000
N2   N   0.525764029650701   0.046872431618845   0.110689904478954   1.0000000
N2   N   0.524383201423995   0.188268289964274   0.110494539458280   1.0000000
N2   N   0.521578728208871   0.328426296577554   0.110756475413341   1.0000000
N2   N   0.532002647106444   0.538546216487467   0.113352355846534   1.0000000
N2   N   0.542745287908160   0.628119409655624   0.112229826031967   1.0000000
N2   N   0.529623621426020   0.762692202309608   0.110829886468574   1.0000000
N2   N   0.670988156245438   0.909416738005663   0.110676877512714   1.0000000
N2   N   0.669067483395902   0.050265760362041   0.110796280114058   1.0000000
N2   N   0.667660551737478   0.192604271139008   0.110570319564462   1.0000000
N2   N   0.665538491860915   0.336143091049077   0.110696953120152   1.0000000
N2   N   0.659482162437428   0.480703288405348   0.111228788233024   1.0000000
N2   N   0.678451965872278   0.631718834483981   0.109591808414316   1.0000000
N2   N   0.676817481779668   0.773138037782875   0.109433394794634   1.0000000
N2   N   0.815144402647457   0.910506385884393   0.110638637804436   1.0000000
N2   N   0.812341090429264   0.051107737325270   0.110938323529743   1.0000000
N2   N   0.810953651012165   0.193121655836691   0.110711552148999   1.0000000
N2   N   0.809459591400365   0.335633026705664   0.110672883529410   1.0000000
N2   N   0.807087136317775   0.478218551037079   0.110862754106296   1.0000000
N2   N   0.812132235453794   0.621397987460701   0.110589206947777   1.0000000
N2   N   0.816506698200945   0.768065878394991   0.109998118589573   1.0000000


