data_1
_audit_creation_method   'vasp2cif'
_cell_length_a    17.52789999999977
_cell_length_b    17.52789999999977
_cell_length_c    15.0
_cell_angle_alpha    90.0
_cell_angle_beta    90.0
_cell_angle_gamma    119.99999999999916

_symmetry_space_group_name_H-M    'P 1'
loop_
_atom_site_label
_atom_site_type_symbol
_atom_site_fract_x
_atom_site_fract_y
_atom_site_fract_z
_atom_site_occupancy
B2   B   0.905092286819444   0.952318823769495   0.109392229842491   1.0000000
B2   B   0.904693692309885   0.095308054382105   0.110297131447984   1.0000000
B2   B   0.904940831281280   0.238199830104270   0.110720643767779   1.0000000
B2   B   0.904644006761446   0.380860251722773   0.110073844779714   1.0000000
B2   B   0.905004983073800   0.524052350230883   0.109257498399332   1.0000000
B2   B   0.905015766107763   0.666701844567091   0.109585556979138   1.0000000
B2   B   0.905112942943158   0.809669501721228   0.109640538625084   1.0000000
B2   B   0.047729966458480   0.952271756906479   0.110364254922550   1.0000000
B2   B   0.047682891572520   0.094909433652615   0.109392229369489   1.0000000
B2   B   0.047099643673735   0.237556463783103   0.108364950459871   1.0000000
B2   B   0.047054555106124   0.380958923840728   0.108320908871000   1.0000000
B2   B   0.047519137858680   0.524046275258837   0.109298867899194   1.0000000
B2   B   0.047663502815227   0.666790133025265   0.110319574689524   1.0000000
B2   B   0.047761825766769   0.809510125222942   0.110850363818281   1.0000000
B2   B   0.190491624470059   0.952239937326240   0.110850362292284   1.0000000
B2   B   0.190332199314762   0.094888769764846   0.109640534501087   1.0000000
B2   B   0.189452593435703   0.236990131370763   0.107345862944784   1.0000000
B2   B   0.189638380522302   0.380522531690598   0.106815273388834   1.0000000
B2   B   0.189383801253822   0.523874660960774   0.107802752544985   1.0000000
B2   B   0.190283096823837   0.666797261096241   0.109950600672717   1.0000000
B2   B   0.190448637269371   0.809553057271623   0.110962625292475   1.0000000
B2   B   0.333211602679700   0.952338221018787   0.110319577103522   1.0000000
B2   B   0.333299869409947   0.094985973812257   0.109585552602138   1.0000000
B2   B   0.333307280281179   0.237843457626045   0.110869029989466   1.0000000
B2   B   0.330238326107780   0.378562110289570   0.115804843562488   1.0000000
B2   B   0.330188525108406   0.523049832848680   0.116265233751447   1.0000000
B2   B   0.333194608165571   0.666807094608421   0.111454830164498   1.0000000
B2   B   0.333204392223762   0.809718532019175   0.109950604205720   1.0000000
B2   B   0.475955412160156   0.952482443071311   0.109298873210196   1.0000000
B2   B   0.475949391275115   0.094996839602205   0.109257507092332   1.0000000
B2   B   0.476135336012042   0.237051198637080   0.107839681609817   1.0000000
B2   B   0.476932366173083   0.378635343626138   0.116331348668041   1.0000000
B2   B   0.476951951584330   0.669813332231612   0.116265234265453   1.0000000
B2   B   0.476127054829223   0.810617885814195   0.107802758281985   1.0000000
B2   B   0.619042815131288   0.952947129310846   0.108320910978001   1.0000000
B2   B   0.619141418625221   0.095357680520543   0.110073845865714   1.0000000
B2   B   0.619086937864750   0.237700695719171   0.108538650394502   1.0000000
B2   B   0.619454663364899   0.380547070844111   0.107472343818850   1.0000000
B2   B   0.621366225343882   0.523069301029932   0.116331343410039   1.0000000
B2   B   0.621439539165463   0.669763397608223   0.115804843275486   1.0000000
B2   B   0.619479211469414   0.810363388880721   0.106815269040831   1.0000000
B2   B   0.762445276744890   0.952902075853245   0.108364952685866   1.0000000
B2   B   0.761801865656752   0.095060845252731   0.110720646170777   1.0000000
B2   B   0.761735250563230   0.238266454616798   0.110700371234037   1.0000000
B2   B   0.762301126664825   0.380914817566241   0.108538641987503   1.0000000
B2   B   0.762950553538891   0.523866346794976   0.107839673645819   1.0000000
B2   B   0.762158201144956   0.666694400263794   0.110869038617466   1.0000000
B2   B   0.763011540053241   0.810549123246329   0.107345865418781   1.0000000
Si2   Si   0.476135333889651   0.523866321657340   0.169843426138510   1.0000000
N2   N   0.952556127707252   0.904884558793692   0.109892797042438   1.0000000
N2   N   0.952295368506941   0.047706348803054   0.110038522179416   1.0000000
N2   N   0.952061054845474   0.190321083099893   0.110271557699698   1.0000000
N2   N   0.952025606384590   0.333104954161295   0.110090062956164   1.0000000
N2   N   0.952228456053500   0.475907423341477   0.109708666524043   1.0000000
N2   N   0.952490877227848   0.619023112532704   0.109671775332407   1.0000000
N2   N   0.952531649978493   0.761947510763779   0.110262971011280   1.0000000
N2   N   0.095240178380637   0.904761574087350   0.111007731315854   1.0000000
N2   N   0.095117146644304   0.047445591107723   0.109892803539435   1.0000000
N2   N   0.094418055870069   0.189752802416177   0.108015086518940   1.0000000
N2   N   0.094131249893508   0.332721799802568   0.107127374088412   1.0000000
N2   N   0.094380032464111   0.475988267442224   0.108041844300354   1.0000000
N2   N   0.095055983510662   0.618999430538365   0.109984374987035   1.0000000
N2   N   0.095258862463092   0.761882892042134   0.111017415874420   1.0000000
N2   N   0.238118820118884   0.904742848294931   0.111017416766421   1.0000000
N2   N   0.238054218613251   0.047470118985481   0.110262963588283   1.0000000
N2   N   0.237679255948287   0.190068630626807   0.108963721171768   1.0000000
N2   N   0.235967344027592   0.331664904225021   0.106663108879594   1.0000000
N2   N   0.235928220909122   0.475684282485917   0.107302396032243   1.0000000
N2   N   0.237698400938428   0.618997985550366   0.109468211838979   1.0000000
N2   N   0.238046871769846   0.761954762425160   0.110555057015114   1.0000000
N2   N   0.381002240564636   0.904945642272322   0.109984379137038   1.0000000
N2   N   0.380978614654313   0.047510873692150   0.109671783080407   1.0000000
N2   N   0.380988027061097   0.190120780748283   0.109056727381492   1.0000000
N2   N   0.380670455911110   0.332833905916277   0.115799544768808   1.0000000
N2   N   0.372590587289007   0.471977454209618   0.126633415129442   1.0000000
N2   N   0.380732894701985   0.619268903256966   0.116485814124519   1.0000000
N2   N   0.381003752938634   0.762303305941563   0.109468216459980   1.0000000
N2   N   0.524013464785819   0.905621563051873   0.108041858078353   1.0000000
N2   N   0.524094235007573   0.047773205706520   0.109708666969048   1.0000000
N2   N   0.523975157968501   0.189869386995255   0.108239157342887   1.0000000
N2   N   0.524242415374341   0.331738466296358   0.107674401627845   1.0000000
N2   N   0.527884866096422   0.472116730528596   0.126966241762049   1.0000000
N2   N   0.528024205073405   0.627411094850032   0.126633416707443   1.0000000
N2   N   0.524317500127084   0.764073635418882   0.107302393216241   1.0000000
N2   N   0.667279990809426   0.905870497579527   0.107127371875412   1.0000000
N2   N   0.666896715569665   0.047976047864403   0.110090061488168   1.0000000
N2   N   0.666863416386801   0.190401707337668   0.110174018797953   1.0000000
N2   N   0.667172448064368   0.332829362484641   0.107489067871358   1.0000000
N2   N   0.668263197835644   0.475759300635643   0.107674381228845   1.0000000
N2   N   0.667167724727720   0.619331238633902   0.115799547403806   1.0000000
N2   N   0.668336762228946   0.764034413440414   0.106663101748593   1.0000000
N2   N   0.810248910099814   0.905583659163924   0.108015086894945   1.0000000
N2   N   0.809680642177093   0.047940654227559   0.110271567386698   1.0000000
N2   N   0.809532910297012   0.190468744394917   0.111428793266378   1.0000000
N2   N   0.809600030770359   0.333138268774214   0.110174012857957   1.0000000
N2   N   0.810132504559754   0.476026596481520   0.108239136831885   1.0000000
N2   N   0.809880940618704   0.619013676985883   0.109056742734495   1.0000000
N2   N   0.809933031467238   0.762322435835705   0.108963732467763   1.0000000


