data_1
_audit_creation_method   'vasp2cif'
_cell_length_a    14.93631414619966
_cell_length_b    14.936314146199727
_cell_length_c    13.341276283792837
_cell_angle_alpha    90.0
_cell_angle_beta    90.0
_cell_angle_gamma    119.99999999999984

_symmetry_space_group_name_H-M    'P 1'
loop_
_atom_site_label
_atom_site_type_symbol
_atom_site_fract_x
_atom_site_fract_y
_atom_site_fract_z
_atom_site_occupancy
Se2   Se   0.444444444444443   0.388888888888886   0.375000000000000   1.0000000
N2   N   0.111119133338603   0.055570755029469   0.125243217289504   1.0000000
N2   N   0.611068698061418   0.555525864734768   0.124060625297293   1.0000000
N2   N   0.444451621690867   0.055570755029469   0.125243217289504   1.0000000
N2   N   0.944434413065222   0.555550236655597   0.125060697008622   1.0000000
N2   N   0.777777777777779   0.055555555555557   0.124952960277671   1.0000000
N2   N   0.111111111111114   0.722222222222221   0.624985137336480   1.0000000
N2   N   0.444451621690867   0.722214199994733   0.624756782710497   1.0000000
N2   N   0.277807468598567   0.222264635271919   0.625939374702705   1.0000000
N2   N   0.777762578303867   0.722214199994733   0.624756782710497   1.0000000
N2   N   0.611113171526552   0.222220161806785   0.624841606497566   1.0000000
N2   N   0.944440834272046   0.222220195555369   0.624977993641762   1.0000000
N2   N   0.277783096677737   0.722217509742960   0.125060697008622   1.0000000
N2   N   0.111106990280242   0.222220161806785   0.125158393502435   1.0000000
N2   N   0.444457166673352   0.222264635271919   0.124060625297293   1.0000000
N2   N   0.611113171526552   0.722226343053094   0.125158393502435   1.0000000
N2   N   0.944434413065222   0.722217509742960   0.125060697008622   1.0000000
N2   N   0.777779361283323   0.222220195555369   0.125022006358239   1.0000000
N2   N   0.111115823590376   0.888898920268107   0.624939302991380   1.0000000
N2   N   0.444449364949728   0.888891349141528   0.624983619604468   1.0000000
N2   N   0.277807468598567   0.388876166659977   0.625939374702705   1.0000000
N2   N   0.611068698061418   0.388876166659977   0.625939374702705   1.0000000
N2   N   0.777779361283323   0.888892499061282   0.624977993641762   1.0000000
N2   N   0.944441984191800   0.388883968383600   0.624983619604468   1.0000000
N2   N   0.111119133338603   0.388881711642462   0.125243217289504   1.0000000
N2   N   0.277783096677737   0.888898920268107   0.125060697008622   1.0000000
N2   N   0.611113137777967   0.888892499061282   0.125022006358239   1.0000000
N2   N   0.444444444444443   0.388888888888886   0.117938288172476   1.0000000
N2   N   0.944441984191800   0.888891349141528   0.125016380395533   1.0000000
N2   N   0.777762578303867   0.388881711642462   0.125243217289504   1.0000000
N2   N   0.277790691595046   0.555542641738289   0.624784793184239   1.0000000
N2   N   0.111119133338603   0.055570755029469   0.624756782710497   1.0000000
N2   N   0.611068698061418   0.555525864734768   0.625939374702705   1.0000000
N2   N   0.444451621690867   0.055570755029469   0.624756782710497   1.0000000
N2   N   0.944434413065222   0.555550236655597   0.624939302991380   1.0000000
N2   N   0.111115823590376   0.555550236655597   0.125060697008622   1.0000000
N2   N   0.777777777777779   0.055555555555557   0.625047039722329   1.0000000
N2   N   0.277790691595046   0.055581383190092   0.125215206815761   1.0000000
N2   N   0.444457166673352   0.555525864734768   0.124060625297293   1.0000000
N2   N   0.777751950143243   0.555542641738289   0.125215206815761   1.0000000
N2   N   0.611113137777967   0.055553972050013   0.125022006358239   1.0000000
N2   N   0.444457166673352   0.555525864734768   0.625939374702705   1.0000000
N2   N   0.944440834272046   0.055553972050013   0.125022006358239   1.0000000
N2   N   0.277783096677737   0.722217509742960   0.624939302991380   1.0000000
N2   N   0.111106990280242   0.222220161806785   0.624841606497566   1.0000000
N2   N   0.444457166673352   0.222264635271919   0.625939374702705   1.0000000
N2   N   0.611113171526552   0.722226343053094   0.624841606497566   1.0000000
N2   N   0.944434413065222   0.722217509742960   0.624939302991380   1.0000000
N2   N   0.777779361283323   0.222220195555369   0.624977993641762   1.0000000
N2   N   0.111111111111114   0.722222222222221   0.125014862663520   1.0000000
N2   N   0.444451621690867   0.722214199994733   0.125243217289504   1.0000000
N2   N   0.277807468598567   0.222264635271919   0.124060625297293   1.0000000
N2   N   0.777762578303867   0.722214199994733   0.125243217289504   1.0000000
N2   N   0.611113171526552   0.222220161806785   0.125158393502435   1.0000000
N2   N   0.944440834272046   0.222220195555369   0.125022006358239   1.0000000
N2   N   0.111119133338603   0.388881711642462   0.624756782710497   1.0000000
N2   N   0.277783096677737   0.888898920268107   0.624939302991380   1.0000000
N2   N   0.611113137777967   0.888892499061282   0.624977993641762   1.0000000
N2   N   0.444444444444443   0.388888888888886   0.632061711827524   1.0000000
N2   N   0.944441984191800   0.888891349141528   0.624983619604468   1.0000000
N2   N   0.111115823590376   0.888898920268107   0.125060697008622   1.0000000
N2   N   0.777762578303867   0.388881711642462   0.624756782710497   1.0000000
N2   N   0.444449364949728   0.888891349141528   0.125016380395533   1.0000000
N2   N   0.277807468598567   0.388876166659977   0.124060625297293   1.0000000
N2   N   0.277790691595046   0.555542641738289   0.125215206815761   1.0000000
N2   N   0.611068698061418   0.388876166659977   0.124060625297293   1.0000000
N2   N   0.777779361283323   0.888892499061282   0.125022006358239   1.0000000
N2   N   0.944441984191800   0.388883968383600   0.125016380395533   1.0000000
N2   N   0.111115823590376   0.555550236655597   0.624939302991380   1.0000000
N2   N   0.277790691595046   0.055581383190092   0.624784793184239   1.0000000
N2   N   0.777751950143243   0.555542641738289   0.624784793184239   1.0000000
N2   N   0.611113137777967   0.055553972050013   0.624977993641762   1.0000000
N2   N   0.944440834272046   0.055553972050013   0.624977993641762   1.0000000
N2   N   0.054426402356745   0.110371770202887   0.375000000000000   1.0000000
N2   N   0.556001391934858   0.612002783869719   0.375000000000000   1.0000000
N2   N   0.387369174103099   0.103659471294458   0.375000000000000   1.0000000
N2   N   0.891581801760352   0.612457567546847   0.375000000000000   1.0000000
N2   N   0.722430271544891   0.110903061788446   0.375000000000000   1.0000000
N2   N   0.055555307267000   0.777778026066336   0.875000000000000   1.0000000
N2   N   0.388888701817596   0.777778535485987   0.875000000000000   1.0000000
N2   N   0.222224726758395   0.277779030045866   0.875000000000000   1.0000000
N2   N   0.722221260866765   0.777774293301431   0.875000000000000   1.0000000
N2   N   0.555554303287470   0.277779030045866   0.875000000000000   1.0000000
N2   N   0.888890027899350   0.277780055798708   0.875000000000000   1.0000000
N2   N   0.221714648926309   0.777523991129822   0.375000000000000   1.0000000
N2   N   0.054426402356745   0.277387965487195   0.375000000000000   1.0000000
N2   N   0.375301173417400   0.250602346834807   0.375000000000000   1.0000000
N2   N   0.555945367846142   0.778906930976590   0.375000000000000   1.0000000
N2   N   0.890931298319038   0.779412199044566   0.375000000000000   1.0000000
N2   N   0.722961563130449   0.277387965487195   0.375000000000000   1.0000000
N2   N   0.055554797847349   0.944443499664944   0.875000000000000   1.0000000
N2   N   0.388888701817596   0.944443499664944   0.875000000000000   1.0000000
N2   N   0.222220340248079   0.444447849850267   0.875000000000000   1.0000000
N2   N   0.555577811534373   0.444455572433851   0.875000000000000   1.0000000
N2   N   0.722221275067604   0.944442550135211   0.875000000000000   1.0000000
N2   N   0.888889833668385   0.444444631515733   0.875000000000000   1.0000000
N2   N   0.053921134288771   0.444852432607809   0.375000000000000   1.0000000
N2   N   0.220875765786489   0.941751531572977   0.375000000000000   1.0000000
N2   N   0.555893264990432   0.944613299161882   0.375000000000000   1.0000000
N2   N   0.375301173417400   0.458032159915928   0.375000000000000   1.0000000
N2   N   0.888720034171447   0.944613299161882   0.375000000000000   1.0000000
N2   N   0.729673862038877   0.445964159230230   0.375000000000000   1.0000000
N2   N   0.222220942880340   0.611112390452994   0.875000000000000   1.0000000
N2   N   0.055559040031905   0.111112072466571   0.875000000000000   1.0000000
N2   N   0.555554303287470   0.611108606574940   0.875000000000000   1.0000000
N2   N   0.388885483483061   0.111105823731146   0.875000000000000   1.0000000
N2   N   0.888891447572647   0.611112390452994   0.875000000000000   1.0000000
N2   N   0.055809342203513   0.611618684407025   0.375000000000000   1.0000000
N2   N   0.722221275067604   0.111112058265731   0.875000000000000   1.0000000
N2   N   0.216290297191352   0.103659471294458   0.375000000000000   1.0000000
N2   N   0.387369174103099   0.617043036141985   0.375000000000000   1.0000000
N2   N   0.729673862038877   0.617043036141985   0.375000000000000   1.0000000
N2   N   0.555945367846142   0.110371770202887   0.375000000000000   1.0000000
N2   N   0.388885483483061   0.611112993085258   0.875000000000000   1.0000000
N2   N   0.888472790243548   0.110903061788446   0.375000000000000   1.0000000
N2   N   0.222222718799336   0.777778026066336   0.875000000000000   1.0000000
N2   N   0.055559040031905   0.277780300898669   0.875000000000000   1.0000000
N2   N   0.388877760899478   0.277755521798960   0.875000000000000   1.0000000
N2   N   0.555553032434666   0.777774293301431   0.875000000000000   1.0000000
N2   N   0.888889833668385   0.777778535485987   0.875000000000000   1.0000000
N2   N   0.722221260866765   0.277780300898669   0.875000000000000   1.0000000
N2   N   0.055809342203513   0.777523991129822   0.375000000000000   1.0000000
N2   N   0.388480900725520   0.779412199044566   0.375000000000000   1.0000000
N2   N   0.221330549463617   0.277331941398476   0.375000000000000   1.0000000
N2   N   0.722961563130449   0.778906930976590   0.375000000000000   1.0000000
N2   N   0.556001391934858   0.277331941398476   0.375000000000000   1.0000000
N2   N   0.888720034171447   0.277440068342903   0.375000000000000   1.0000000
N2   N   0.055554797847349   0.444444631515733   0.875000000000000   1.0000000
N2   N   0.222220942880340   0.944441885760681   0.875000000000000   1.0000000
N2   N   0.555553277534626   0.944443305433979   0.875000000000000   1.0000000
N2   N   0.388877760899478   0.444455572433851   0.875000000000000   1.0000000
N2   N   0.888890027899350   0.944443305433979   0.875000000000000   1.0000000
N2   N   0.053921134288771   0.942402035014291   0.375000000000000   1.0000000
N2   N   0.722227509602188   0.444447849850267   0.875000000000000   1.0000000
N2   N   0.388480900725520   0.942402035014291   0.375000000000000   1.0000000
N2   N   0.216290297191352   0.445964159230230   0.375000000000000   1.0000000
N2   N   0.220875765786489   0.612457567546847   0.375000000000000   1.0000000
N2   N   0.582730986498528   0.458032159915928   0.375000000000000   1.0000000
N2   N   0.722430271544891   0.944860543089781   0.375000000000000   1.0000000
N2   N   0.890931298319038   0.444852432607809   0.375000000000000   1.0000000
N2   N   0.055555307267000   0.611110614534000   0.875000000000000   1.0000000
N2   N   0.222220340248079   0.111105823731146   0.875000000000000   1.0000000
N2   N   0.722227509602188   0.611112993085258   0.875000000000000   1.0000000
N2   N   0.555553032434666   0.111112072466571   0.875000000000000   1.0000000
N2   N   0.888890783198117   0.111112058265731   0.875000000000000   1.0000000
B2   B   0.107204930087485   0.051927276173799   0.375000000000000   1.0000000
B2   B   0.620618501484816   0.563957983092518   0.375000000000000   1.0000000
B2   B   0.444722346086314   0.051927276173799   0.375000000000000   1.0000000
B2   B   0.945623694119697   0.555899045070153   0.375000000000000   1.0000000
B2   B   0.777777777777779   0.055555555555557   0.375000000000000   1.0000000
B2   B   0.111111111111114   0.722222222222221   0.875000000000000   1.0000000
B2   B   0.444441813998779   0.722211999868794   0.875000000000000   1.0000000
B2   B   0.277797396753357   0.222233998818677   0.875000000000000   1.0000000
B2   B   0.777770185870015   0.722211999868794   0.875000000000000   1.0000000
B2   B   0.611102413823699   0.222230919509637   0.875000000000000   1.0000000
B2   B   0.944451886684326   0.222226735864906   0.875000000000000   1.0000000
B2   B   0.277434288263184   0.723057982382877   0.375000000000000   1.0000000
B2   B   0.109883676588414   0.221608504960871   0.375000000000000   1.0000000
B2   B   0.443339481607701   0.212714831848517   0.375000000000000   1.0000000
B2   B   0.611724828372468   0.723449656744923   0.375000000000000   1.0000000
B2   B   0.945623694119697   0.723057982382877   0.375000000000000   1.0000000
B2   B   0.777923529288189   0.221676455131684   0.375000000000000   1.0000000
B2   B   0.111112991504394   0.888893107724842   0.875000000000000   1.0000000
B2   B   0.444444489910706   0.888888911622017   0.875000000000000   1.0000000
B2   B   0.277797396753357   0.388896731268009   0.875000000000000   1.0000000
B2   B   0.611099334514658   0.388896731268009   0.875000000000000   1.0000000
B2   B   0.777774849180581   0.888881446649002   0.875000000000000   1.0000000
B2   B   0.944444421711312   0.388888843422622   0.875000000000000   1.0000000
B2   B   0.107204930087485   0.388610987247015   0.375000000000000   1.0000000
B2   B   0.277434288263184   0.887709639213632   0.375000000000000   1.0000000
B2   B   0.611656878201650   0.889580407489830   0.375000000000000   1.0000000
B2   B   0.944230095192324   0.889103238141005   0.375000000000000   1.0000000
B2   B   0.781406057159537   0.388610987247015   0.375000000000000   1.0000000
B2   B   0.277782315712854   0.555551017620480   0.875000000000000   1.0000000
B2   B   0.111121333464541   0.055563147463321   0.875000000000000   1.0000000
B2   B   0.611099334514658   0.555535936579979   0.875000000000000   1.0000000
B2   B   0.444441813998779   0.055563147463321   0.875000000000000   1.0000000
B2   B   0.944440225608486   0.555553217112882   0.875000000000000   1.0000000
B2   B   0.110275350950457   0.555899045070153   0.375000000000000   1.0000000
B2   B   0.777777777777779   0.055555555555557   0.875000000000000   1.0000000
B2   B   0.275739504417853   0.051479008835703   0.375000000000000   1.0000000
B2   B   0.443339481607701   0.563957983092518   0.375000000000000   1.0000000
B2   B   0.781854324497630   0.557593828915484   0.375000000000000   1.0000000
B2   B   0.611656878201650   0.055409804045148   0.375000000000000   1.0000000
B2   B   0.444436602065319   0.555535936579979   0.875000000000000   1.0000000
B2   B   0.943752925843499   0.055409804045148   0.375000000000000   1.0000000
B2   B   0.277780116220457   0.722220341828942   0.875000000000000   1.0000000
B2   B   0.111128505685945   0.222230919509637   0.875000000000000   1.0000000
B2   B   0.444436602065319   0.222233998818677   0.875000000000000   1.0000000
B2   B   0.611102413823699   0.722204827647388   0.875000000000000   1.0000000
B2   B   0.944440225608486   0.722220341828942   0.875000000000000   1.0000000
B2   B   0.777774849180581   0.222226735864906   0.875000000000000   1.0000000
B2   B   0.111111111111114   0.722222222222221   0.375000000000000   1.0000000
B2   B   0.444722346086314   0.726128403245850   0.375000000000000   1.0000000
B2   B   0.269375350240816   0.212714831848517   0.375000000000000   1.0000000
B2   B   0.781406057159537   0.726128403245850   0.375000000000000   1.0000000
B2   B   0.611724828372468   0.221608504960871   0.375000000000000   1.0000000
B2   B   0.943752925843499   0.221676455131684   0.375000000000000   1.0000000
B2   B   0.111121333464541   0.388891519334549   0.875000000000000   1.0000000
B2   B   0.277780116220457   0.888893107724842   0.875000000000000   1.0000000
B2   B   0.611106597468429   0.888881446649002   0.875000000000000   1.0000000
B2   B   0.444444444444443   0.388888888888886   0.875000000000000   1.0000000
B2   B   0.944444421711312   0.888888911622017   0.875000000000000   1.0000000
B2   B   0.110275350950457   0.887709639213632   0.375000000000000   1.0000000
B2   B   0.777770185870015   0.388891519334549   0.875000000000000   1.0000000
B2   B   0.444873142948680   0.889103238141005   0.375000000000000   1.0000000
B2   B   0.269375350240816   0.389993851725627   0.375000000000000   1.0000000
B2   B   0.275739504417853   0.557593828915484   0.375000000000000   1.0000000
B2   B   0.620618501484816   0.389993851725627   0.375000000000000   1.0000000
B2   B   0.777923529288189   0.889580407489830   0.375000000000000   1.0000000
B2   B   0.944230095192324   0.388460190384649   0.375000000000000   1.0000000
B2   B   0.111112991504394   0.555553217112882   0.875000000000000   1.0000000
B2   B   0.277782315712854   0.055564631425709   0.875000000000000   1.0000000
B2   B   0.777768701907628   0.555551017620480   0.875000000000000   1.0000000
B2   B   0.611106597468429   0.055558484152755   0.875000000000000   1.0000000
B2   B   0.944451886684326   0.055558484152755   0.875000000000000   1.0000000
B2   B   0.055560379535075   0.111125188553177   0.125117130832336   1.0000000
B2   B   0.555529326254000   0.611058652507998   0.124351808462423   1.0000000
B2   B   0.388917968955780   0.111194767494029   0.124973789381707   1.0000000
B2   B   0.888853329965342   0.611093331649344   0.125098781738053   1.0000000
B2   B   0.722223209903050   0.111110123430287   0.124981134590952   1.0000000
B2   B   0.055550752260517   0.777782581072818   0.625006854573945   1.0000000
B2   B   0.388907703034565   0.777770452891475   0.624926455635745   1.0000000
B2   B   0.222274680825336   0.277804007079337   0.625648191537578   1.0000000
B2   B   0.722208144780157   0.777772953798259   0.624882869167663   1.0000000
B2   B   0.555529326254000   0.277804007079337   0.625648191537578   1.0000000
B2   B   0.888883567409514   0.277767134819036   0.625002388813623   1.0000000
B2   B   0.222231828812301   0.777782581072818   0.124993145426055   1.0000000
B2   B   0.055560379535075   0.277768524315234   0.125117130832336   1.0000000
B2   B   0.388990077805295   0.277980155610599   0.122023581437556   1.0000000
B2   B   0.555564809018102   0.777772953798259   0.125117130832336   1.0000000
B2   B   0.888862749856903   0.777770452891475   0.125073544364257   1.0000000
B2   B   0.722208144780157   0.277768524315234   0.125117130832336   1.0000000
B2   B   0.055562880441861   0.944470583476426   0.624926455635745   1.0000000
B2   B   0.388907703034565   0.944470583476426   0.624926455635745   1.0000000
B2   B   0.222276798538244   0.444415364377549   0.625026210618292   1.0000000
B2   B   0.555353177722738   0.444343255528033   0.627976418562444   1.0000000
B2   B   0.722223209903050   0.944446419806097   0.625018865409048   1.0000000
B2   B   0.888862749856903   0.444425630298764   0.624926455635745   1.0000000
B2   B   0.055562880441861   0.444425630298764   0.125073544364257   1.0000000
B2   B   0.222240001683993   0.944480003367987   0.125098781738053   1.0000000
B2   B   0.555566198514301   0.944449765923814   0.124997611186376   1.0000000
B2   B   0.388990077805295   0.444343255528033   0.122023581437556   1.0000000
B2   B   0.888883567409514   0.944449765923814   0.124997611186376   1.0000000
B2   B   0.722138565839308   0.444415364377549   0.124973789381707   1.0000000
B2   B   0.222240001683993   0.611093331649344   0.624901218261947   1.0000000
B2   B   0.055560379535075   0.111125188553177   0.624882869167663   1.0000000
B2   B   0.555529326254000   0.611058652507998   0.625648191537578   1.0000000
B2   B   0.388917968955780   0.111194767494029   0.625026210618292   1.0000000
B2   B   0.888853329965342   0.611093331649344   0.624901218261947   1.0000000
B2   B   0.055550752260517   0.611101504521036   0.124993145426055   1.0000000
B2   B   0.722223209903050   0.111110123430287   0.625018865409048   1.0000000
B2   B   0.222276798538244   0.111194767494029   0.124973789381707   1.0000000
B2   B   0.388917968955780   0.611056534795091   0.124973789381707   1.0000000
B2   B   0.722138565839308   0.611056534795091   0.124973789381707   1.0000000
B2   B   0.555564809018102   0.111125188553177   0.125117130832336   1.0000000
B2   B   0.388917968955780   0.611056534795091   0.625026210618292   1.0000000
B2   B   0.888886913527231   0.111110123430287   0.124981134590952   1.0000000
B2   B   0.222231828812301   0.777782581072818   0.625006854573945   1.0000000
B2   B   0.055560379535075   0.277768524315234   0.624882869167663   1.0000000
B2   B   0.388990077805295   0.277980155610599   0.627976418562444   1.0000000
B2   B   0.555564809018102   0.777772953798259   0.624882869167663   1.0000000
B2   B   0.888862749856903   0.777770452891475   0.624926455635745   1.0000000
B2   B   0.722208144780157   0.277768524315234   0.624882869167663   1.0000000
B2   B   0.055550752260517   0.777782581072818   0.124993145426055   1.0000000
B2   B   0.388907703034565   0.777770452891475   0.125073544364257   1.0000000
B2   B   0.222274680825336   0.277804007079337   0.124351808462423   1.0000000
B2   B   0.722208144780157   0.777772953798259   0.125117130832336   1.0000000
B2   B   0.555529326254000   0.277804007079337   0.124351808462423   1.0000000
B2   B   0.888883567409514   0.277767134819036   0.124997611186376   1.0000000
B2   B   0.055562880441861   0.444425630298764   0.624926455635745   1.0000000
B2   B   0.222240001683993   0.944480003367987   0.624901218261947   1.0000000
B2   B   0.555566198514301   0.944449765923814   0.625002388813623   1.0000000
B2   B   0.388990077805295   0.444343255528033   0.627976418562444   1.0000000
B2   B   0.888883567409514   0.944449765923814   0.625002388813623   1.0000000
B2   B   0.055562880441861   0.944470583476426   0.125073544364257   1.0000000
B2   B   0.722138565839308   0.444415364377549   0.625026210618292   1.0000000
B2   B   0.388907703034565   0.944470583476426   0.125073544364257   1.0000000
B2   B   0.222276798538244   0.444415364377549   0.124973789381707   1.0000000
B2   B   0.222240001683993   0.611093331649344   0.125098781738053   1.0000000
B2   B   0.555353177722738   0.444343255528033   0.122023581437556   1.0000000
B2   B   0.722223209903050   0.944446419806097   0.124981134590952   1.0000000
B2   B   0.888862749856903   0.444425630298764   0.125073544364257   1.0000000
B2   B   0.055550752260517   0.611101504521036   0.625006854573945   1.0000000
B2   B   0.222276798538244   0.111194767494029   0.625026210618292   1.0000000
B2   B   0.722138565839308   0.611056534795091   0.625026210618292   1.0000000
B2   B   0.555564809018102   0.111125188553177   0.624882869167663   1.0000000
B2   B   0.888886913527231   0.111110123430287   0.625018865409048   1.0000000


