data_1
_audit_creation_method   'vasp2cif'
_cell_length_a    14.93631414619966
_cell_length_b    14.936314146199727
_cell_length_c    13.341276283792837
_cell_angle_alpha    90.0
_cell_angle_beta    90.0
_cell_angle_gamma    119.99999999999984

_symmetry_space_group_name_H-M    'P 1'
loop_
_atom_site_label
_atom_site_type_symbol
_atom_site_fract_x
_atom_site_fract_y
_atom_site_fract_z
_atom_site_occupancy
N2   N   0.111110115709294   0.055539348991241   0.125130726394131   1.0000000
N2   N   0.611097982767258   0.555526674726563   0.125975556267893   1.0000000
N2   N   0.444431188007047   0.055538088026725   0.125157883704356   1.0000000
N2   N   0.944450022837105   0.555558846067836   0.125154917060344   1.0000000
N2   N   0.777766700689519   0.055548418364216   0.125114771731407   1.0000000
N2   N   0.111109228792749   0.722218067773387   0.624873202887155   1.0000000
N2   N   0.444432244190919   0.722212387736456   0.624732111411275   1.0000000
N2   N   0.277785258030210   0.222213756561363   0.624711390256815   1.0000000
N2   N   0.777756761388269   0.722190851187237   0.624532929980619   1.0000000
N2   N   0.611093471551536   0.222215174269389   0.624762681559611   1.0000000
N2   N   0.944445690862602   0.222226293392672   0.624882493924517   1.0000000
N2   N   0.277771257108174   0.722220549705478   0.125149758466404   1.0000000
N2   N   0.111120342374731   0.222220581088926   0.125144688726194   1.0000000
N2   N   0.444437534653582   0.222211901816690   0.125438889693266   1.0000000
N2   N   0.611093190613138   0.722211183096770   0.125299218680198   1.0000000
N2   N   0.944441007963216   0.722213176298148   0.125224627360204   1.0000000
N2   N   0.777766560539479   0.222227808139938   0.125136322306797   1.0000000
N2   N   0.111107976724654   0.888875253203991   0.624871742335415   1.0000000
N2   N   0.444431216873574   0.888878241397615   0.624854135687424   1.0000000
N2   N   0.277784865909577   0.388895379881933   0.624722230435731   1.0000000
N2   N   0.611103723603946   0.388886830878475   0.624306285704069   1.0000000
N2   N   0.777766602547283   0.888868990228820   0.624841389677973   1.0000000
N2   N   0.944446176019752   0.388899712089245   0.624889927509041   1.0000000
N2   N   0.111112417407241   0.388898070803398   0.125119097808505   1.0000000
N2   N   0.277772440864706   0.888877137552056   0.125117995598172   1.0000000
N2   N   0.611093732768135   0.888880624002541   0.125130988595333   1.0000000
N2   N   0.444449788320999   0.388892593180590   0.125916871252919   1.0000000
N2   N   0.944438975537893   0.888870492895562   0.125159795240843   1.0000000
N2   N   0.777778587803315   0.388898412208975   0.125226882263668   1.0000000
N2   N   0.277766017845951   0.555559354103915   0.624841375870315   1.0000000
N2   N   0.111110115709294   0.055539348991241   0.624869273605869   1.0000000
N2   N   0.611097982767258   0.555526674726563   0.624024443732107   1.0000000
N2   N   0.444431188007047   0.055538088026725   0.624842116295644   1.0000000
N2   N   0.944450022837105   0.555558846067836   0.624845082939656   1.0000000
N2   N   0.111105930865010   0.555559971243886   0.125111580571263   1.0000000
N2   N   0.777766700689519   0.055548418364216   0.624885228268594   1.0000000
N2   N   0.277772778855417   0.055537028561989   0.125167576456718   1.0000000
N2   N   0.444421243136424   0.555544555754048   0.125422150523266   1.0000000
N2   N   0.777776653251359   0.555550982652387   0.125515500259105   1.0000000
N2   N   0.611094125080591   0.055548070460339   0.125114523629347   1.0000000
N2   N   0.444421243136424   0.555544555754048   0.624577849476734   1.0000000
N2   N   0.944445074879504   0.055544817438213   0.125116667340896   1.0000000
N2   N   0.277771257108174   0.722220549705478   0.624850241533595   1.0000000
N2   N   0.111120342374731   0.222220581088926   0.624855311273806   1.0000000
N2   N   0.444437534653582   0.222211901816690   0.624561110306735   1.0000000
N2   N   0.611093190613138   0.722211183096770   0.624700781319803   1.0000000
N2   N   0.944441007963216   0.722213176298148   0.624775372639795   1.0000000
N2   N   0.777766560539479   0.222227808139938   0.624863677693203   1.0000000
N2   N   0.111109228792749   0.722218067773387   0.125126797112844   1.0000000
N2   N   0.444432244190919   0.722212387736456   0.125267888588725   1.0000000
N2   N   0.277785258030210   0.222213756561363   0.125288609743184   1.0000000
N2   N   0.777756761388269   0.722190851187237   0.125467070019380   1.0000000
N2   N   0.611093471551536   0.222215174269389   0.125237318440389   1.0000000
N2   N   0.944445690862602   0.222226293392672   0.125117506075483   1.0000000
N2   N   0.111112417407241   0.388898070803398   0.624880902191494   1.0000000
N2   N   0.277772440864706   0.888877137552056   0.624882004401829   1.0000000
N2   N   0.611093732768135   0.888880624002541   0.624869011404668   1.0000000
N2   N   0.444449788320999   0.388892593180590   0.624083128747081   1.0000000
N2   N   0.944438975537893   0.888870492895562   0.624840204759157   1.0000000
N2   N   0.111107976724654   0.888875253203991   0.125128257664585   1.0000000
N2   N   0.777778587803315   0.388898412208975   0.624773117736331   1.0000000
N2   N   0.444431216873574   0.888878241397615   0.125145864312576   1.0000000
N2   N   0.277784865909577   0.388895379881933   0.125277769564268   1.0000000
N2   N   0.277766017845951   0.555559354103915   0.125158624129686   1.0000000
N2   N   0.611103723603946   0.388886830878475   0.125693714295931   1.0000000
N2   N   0.777766602547283   0.888868990228820   0.125158610322027   1.0000000
N2   N   0.944446176019752   0.388899712089245   0.125110072490958   1.0000000
N2   N   0.111105930865010   0.555559971243886   0.624888419428737   1.0000000
N2   N   0.277772778855417   0.055537028561989   0.624832423543282   1.0000000
N2   N   0.777776653251359   0.555550982652387   0.624484499740895   1.0000000
N2   N   0.611094125080591   0.055548070460339   0.624885476370653   1.0000000
N2   N   0.944445074879504   0.055544817438213   0.624883332659103   1.0000000
N2   N   0.055616186755029   0.111087742150736   0.375000000000000   1.0000000
N2   N   0.389437364711564   0.112087730471150   0.375000000000000   1.0000000
N2   N   0.889918116489265   0.611145075890978   0.375000000000000   1.0000000
N2   N   0.722172540859263   0.111608290366900   0.375000000000000   1.0000000
N2   N   0.055549910943454   0.777773882943679   0.875000000000000   1.0000000
N2   N   0.388894308769688   0.777775923521246   0.875000000000000   1.0000000
N2   N   0.222220619865926   0.277774778416649   0.875000000000000   1.0000000
N2   N   0.722223999751772   0.777777285208710   0.875000000000000   1.0000000
N2   N   0.555558153339520   0.277778242411640   0.875000000000000   1.0000000
N2   N   0.888890151275223   0.277775651231998   0.875000000000000   1.0000000
N2   N   0.222501881376877   0.778055436496732   0.375000000000000   1.0000000
N2   N   0.055259557897707   0.277550949083617   0.375000000000000   1.0000000
N2   N   0.390949310819584   0.279605165253768   0.375000000000000   1.0000000
N2   N   0.556264035284847   0.778465859992534   0.375000000000000   1.0000000
N2   N   0.888292713762708   0.776978260256230   0.375000000000000   1.0000000
N2   N   0.721885974216153   0.278309345337831   0.375000000000000   1.0000000
N2   N   0.055552959330451   0.944445688550397   0.875000000000000   1.0000000
N2   N   0.388894774659232   0.944446744640133   0.875000000000000   1.0000000
N2   N   0.222221414216957   0.444437628786307   0.875000000000000   1.0000000
N2   N   0.555555318106652   0.444443954485467   0.875000000000000   1.0000000
N2   N   0.722224177970145   0.944443898085385   0.875000000000000   1.0000000
N2   N   0.888888416917673   0.444438605184768   0.875000000000000   1.0000000
N2   N   0.055162432172681   0.444235413141966   0.375000000000000   1.0000000
N2   N   0.222609244408665   0.944948811047027   0.375000000000000   1.0000000
N2   N   0.555780489717216   0.945381414175530   0.375000000000000   1.0000000
N2   N   0.388573129190745   0.442692859685516   0.375000000000000   1.0000000
N2   N   0.889531030435285   0.944949707170483   0.375000000000000   1.0000000
N2   N   0.720790735235158   0.444748853792476   0.375000000000000   1.0000000
N2   N   0.222221020454586   0.611103489686056   0.875000000000000   1.0000000
N2   N   0.055552921321292   0.111107977141707   0.875000000000000   1.0000000
N2   N   0.555557722002356   0.611106466691592   0.875000000000000   1.0000000
N2   N   0.388893843209427   0.111114898884853   0.875000000000000   1.0000000
N2   N   0.888882978338679   0.611103720001654   0.875000000000000   1.0000000
N2   N   0.055690774893724   0.611147023895068   0.375000000000000   1.0000000
N2   N   0.722222668564338   0.111108506606867   0.875000000000000   1.0000000
N2   N   0.222844881669867   0.111741348261423   0.375000000000000   1.0000000
N2   N   0.386927524428506   0.610265389591950   0.375000000000000   1.0000000
N2   N   0.721958221017349   0.607620727372046   0.375000000000000   1.0000000
N2   N   0.555759395120507   0.112812181215901   0.375000000000000   1.0000000
N2   N   0.388893356718312   0.611104432468030   0.875000000000000   1.0000000
N2   N   0.888883431685425   0.111274256125529   0.375000000000000   1.0000000
N2   N   0.222222060281185   0.777774420680096   0.875000000000000   1.0000000
N2   N   0.055553831916502   0.277773760520828   0.875000000000000   1.0000000
N2   N   0.388891783201826   0.277781711176060   0.875000000000000   1.0000000
N2   N   0.555559424902630   0.777776793459746   0.875000000000000   1.0000000
N2   N   0.888885665476856   0.777777738463405   0.875000000000000   1.0000000
N2   N   0.722223436470843   0.277774463613010   0.875000000000000   1.0000000
N2   N   0.055788385289338   0.778004401764548   0.375000000000000   1.0000000
N2   N   0.389225420830824   0.777838707526864   0.375000000000000   1.0000000
N2   N   0.221768408426935   0.277081864134670   0.375000000000000   1.0000000
N2   N   0.723781705914212   0.778990953949221   0.375000000000000   1.0000000
N2   N   0.555683942555487   0.281512610191294   0.375000000000000   1.0000000
N2   N   0.888558323845421   0.277820461350321   0.375000000000000   1.0000000
N2   N   0.055552833085540   0.444439244429677   0.875000000000000   1.0000000
N2   N   0.222222477586588   0.944446077724366   0.875000000000000   1.0000000
N2   N   0.555558268981927   0.944445385831375   0.875000000000000   1.0000000
N2   N   0.388891799944991   0.444440578788994   0.875000000000000   1.0000000
N2   N   0.888891002657347   0.944445361607339   0.875000000000000   1.0000000
N2   N   0.055652230699362   0.944486275381070   0.375000000000000   1.0000000
N2   N   0.722220807400388   0.444440750688577   0.875000000000000   1.0000000
N2   N   0.389260299231911   0.945032634119696   0.375000000000000   1.0000000
N2   N   0.221879044137063   0.443844001011531   0.375000000000000   1.0000000
N2   N   0.221596460302483   0.610998995271925   0.375000000000000   1.0000000
N2   N   0.722535422952528   0.944927313228282   0.375000000000000   1.0000000
N2   N   0.888274488407104   0.444387073897846   0.375000000000000   1.0000000
N2   N   0.055550107921754   0.611102177683526   0.875000000000000   1.0000000
N2   N   0.222219945425330   0.111111697656263   0.875000000000000   1.0000000
N2   N   0.722218651675981   0.611107616637979   0.875000000000000   1.0000000
N2   N   0.555558240664681   0.111109797248805   0.875000000000000   1.0000000
N2   N   0.888889988758914   0.111108183991302   0.875000000000000   1.0000000
B2   B   0.111122126291208   0.055636329144081   0.375000000000000   1.0000000
B2   B   0.613777585964926   0.548762217419128   0.375000000000000   1.0000000
B2   B   0.444780572509611   0.055993730026839   0.375000000000000   1.0000000
B2   B   0.945188931103317   0.555393469406595   0.375000000000000   1.0000000
B2   B   0.777879303537496   0.056025238103672   0.375000000000000   1.0000000
B2   B   0.111116428485388   0.722219671525575   0.875000000000000   1.0000000
B2   B   0.444446073927888   0.722240067181256   0.875000000000000   1.0000000
B2   B   0.277739401228879   0.222194961887514   0.875000000000000   1.0000000
B2   B   0.777801660196865   0.722259322261958   0.875000000000000   1.0000000
B2   B   0.611126075657943   0.222193532735476   0.875000000000000   1.0000000
B2   B   0.944436557916630   0.222209029520402   0.875000000000000   1.0000000
B2   B   0.277828400339186   0.722296394450545   0.375000000000000   1.0000000
B2   B   0.110261018736435   0.221662789335875   0.375000000000000   1.0000000
B2   B   0.444617510722584   0.222043327181591   0.375000000000000   1.0000000
B2   B   0.613770116669791   0.725206035491046   0.375000000000000   1.0000000
B2   B   0.945084922989777   0.722554239383807   0.375000000000000   1.0000000
B2   B   0.777691980045542   0.222376747420473   0.375000000000000   1.0000000
B2   B   0.111108675319809   0.888888902440743   0.875000000000000   1.0000000
B2   B   0.444451271235347   0.888890770644857   0.875000000000000   1.0000000
B2   B   0.277738295899481   0.388873127105311   0.875000000000000   1.0000000
B2   B   0.611128603214083   0.388871388232219   0.875000000000000   1.0000000
B2   B   0.777793973498950   0.888920331351979   0.875000000000000   1.0000000
B2   B   0.944452519875397   0.388874592773707   0.875000000000000   1.0000000
B2   B   0.110404040972089   0.388417515015555   0.375000000000000   1.0000000
B2   B   0.278070495661466   0.889203369259817   0.375000000000000   1.0000000
B2   B   0.611475142946365   0.889931746362379   0.375000000000000   1.0000000
B2   B   0.442295614026424   0.387640593093888   0.375000000000000   1.0000000
B2   B   0.944472266126770   0.888927834106666   0.375000000000000   1.0000000
B2   B   0.777432821260958   0.388576191014787   0.375000000000000   1.0000000
B2   B   0.277758573827733   0.555553594105436   0.875000000000000   1.0000000
B2   B   0.111089057643089   0.055545040718866   0.875000000000000   1.0000000
B2   B   0.611126058781038   0.555579721999420   0.875000000000000   1.0000000
B2   B   0.444448046150790   0.055534855472264   0.875000000000000   1.0000000
B2   B   0.944462349195827   0.555548847230977   0.875000000000000   1.0000000
B2   B   0.110743801404008   0.555346249208274   0.375000000000000   1.0000000
B2   B   0.777786417380331   0.055559040749967   0.875000000000000   1.0000000
B2   B   0.277945180474184   0.055783397580626   0.375000000000000   1.0000000
B2   B   0.439331949020561   0.553315529680672   0.375000000000000   1.0000000
B2   B   0.780673121532208   0.555554337049164   0.375000000000000   1.0000000
B2   B   0.611239852205049   0.056547938245913   0.375000000000000   1.0000000
B2   B   0.444426095032920   0.555566267021457   0.875000000000000   1.0000000
B2   B   0.944600403960359   0.055890716929559   0.375000000000000   1.0000000
B2   B   0.277775817942600   0.722222396195592   0.875000000000000   1.0000000
B2   B   0.111077399174212   0.222203795238430   0.875000000000000   1.0000000
B2   B   0.444434937424272   0.222191837413647   0.875000000000000   1.0000000
B2   B   0.611127278526632   0.722265771355354   0.875000000000000   1.0000000
B2   B   0.944461575999530   0.722236018469287   0.875000000000000   1.0000000
B2   B   0.777792123735999   0.222204276980367   0.875000000000000   1.0000000
B2   B   0.111402417725133   0.722380800973509   0.375000000000000   1.0000000
B2   B   0.444622717813042   0.722310511863734   0.375000000000000   1.0000000
B2   B   0.277352234281015   0.222232594513475   0.375000000000000   1.0000000
B2   B   0.777555315796552   0.721974254341369   0.375000000000000   1.0000000
B2   B   0.611454654855878   0.223788847074976   0.375000000000000   1.0000000
B2   B   0.944112656294560   0.222172301716338   0.375000000000000   1.0000000
B2   B   0.111088154135927   0.388875206668525   0.875000000000000   1.0000000
B2   B   0.277777892932183   0.888880929270449   0.875000000000000   1.0000000
B2   B   0.611122563861465   0.888910072231611   0.875000000000000   1.0000000
B2   B   0.444417768179781   0.388873316325798   0.875000000000000   1.0000000
B2   B   0.944452380536911   0.888909013551012   0.875000000000000   1.0000000
B2   B   0.111412709725869   0.889188847634115   0.375000000000000   1.0000000
B2   B   0.777803651409245   0.388870633651839   0.875000000000000   1.0000000
B2   B   0.444722050483295   0.889281816152232   0.375000000000000   1.0000000
B2   B   0.275773070358136   0.387054559959024   0.375000000000000   1.0000000
B2   B   0.276089180005799   0.555080154186484   0.375000000000000   1.0000000
B2   B   0.611126815851089   0.391212866274336   0.375000000000000   1.0000000
B2   B   0.778958204420061   0.890279705713906   0.375000000000000   1.0000000
B2   B   0.944065499422898   0.388692120070929   0.375000000000000   1.0000000
B2   B   0.111107599549575   0.555547276913671   0.875000000000000   1.0000000
B2   B   0.277761808788690   0.055535360277680   0.875000000000000   1.0000000
B2   B   0.777805913227964   0.555563507903517   0.875000000000000   1.0000000
B2   B   0.611122850566175   0.055545240673542   0.875000000000000   1.0000000
B2   B   0.944437711684068   0.055558767348178   0.875000000000000   1.0000000
B2   B   0.055519385064789   0.111072558552209   0.124902911023505   1.0000000
B2   B   0.555513129366457   0.611216718071467   0.125113094929435   1.0000000
B2   B   0.388818439305735   0.110954878771599   0.124892166963628   1.0000000
B2   B   0.889028744097952   0.611167316820261   0.124928150452749   1.0000000
B2   B   0.722214290676043   0.111084361440289   0.124910961790926   1.0000000
B2   B   0.055618198471135   0.777793261488728   0.625073669746814   1.0000000
B2   B   0.388844339230420   0.777802095462172   0.625032315047927   1.0000000
B2   B   0.222129215899503   0.277726108444138   0.625134149836648   1.0000000
B2   B   0.722250693650832   0.777860104987973   0.625006427348862   1.0000000
B2   B   0.555537102845476   0.277645711856656   0.625067525823282   1.0000000
B2   B   0.888907143487874   0.277777695846492   0.625091046056480   1.0000000
B2   B   0.222217850947193   0.777773097375836   0.124935706974752   1.0000000
B2   B   0.055518423781352   0.277774265966526   0.124903313488746   1.0000000
B2   B   0.388786091048790   0.277629641485655   0.124955939371846   1.0000000
B2   B   0.555523563198029   0.777850093132625   0.124968395861521   1.0000000
B2   B   0.888978343125255   0.777836515114899   0.124969277930495   1.0000000
B2   B   0.722257678800015   0.277733785315994   0.124873495221804   1.0000000
B2   B   0.055562367069316   0.944417502490764   0.625084212465442   1.0000000
B2   B   0.388848730345648   0.944376943764267   0.625079754665400   1.0000000
B2   B   0.222143272552690   0.444474240787374   0.625128007317189   1.0000000
B2   B   0.555553898720587   0.444408365278537   0.624926919862682   1.0000000
B2   B   0.722213826672250   0.944468648907899   0.625081280981564   1.0000000
B2   B   0.888974029556863   0.444463205693342   0.625116634699012   1.0000000
B2   B   0.055556861998805   0.444470633479257   0.124904828055372   1.0000000
B2   B   0.222196400773068   0.944368956868093   0.124909343094205   1.0000000
B2   B   0.555526694930930   0.944432521687209   0.124928886588808   1.0000000
B2   B   0.388779636383978   0.444467617261882   0.124957950614235   1.0000000
B2   B   0.888904368085304   0.944464095118649   0.124924711119728   1.0000000
B2   B   0.722341086217933   0.444447721227078   0.124952951339106   1.0000000
B2   B   0.222185200957799   0.611146641668768   0.625077753677818   1.0000000
B2   B   0.055519385064789   0.111072558552209   0.625097088976494   1.0000000
B2   B   0.555513129366457   0.611216718071467   0.624886905070565   1.0000000
B2   B   0.388818439305735   0.110954878771599   0.625107833036373   1.0000000
B2   B   0.889028744097952   0.611167316820261   0.625071849547251   1.0000000
B2   B   0.055610366527666   0.611141979108016   0.124910490130554   1.0000000
B2   B   0.722214290676043   0.111084361440289   0.625089038209075   1.0000000
B2   B   0.222148578274697   0.110997421487500   0.124882292008815   1.0000000
B2   B   0.388800736792030   0.611181821341276   0.124938545431906   1.0000000
B2   B   0.722350826790099   0.611197821211985   0.125092377911465   1.0000000
B2   B   0.555527956049930   0.111016413368075   0.124890898693241   1.0000000
B2   B   0.388800736792030   0.611181821341276   0.625061454568094   1.0000000
B2   B   0.888881410011152   0.111107359227579   0.124923998425541   1.0000000
B2   B   0.222217850947193   0.777773097375836   0.625064293025248   1.0000000
B2   B   0.055518423781352   0.277774265966526   0.625096686511254   1.0000000
B2   B   0.388786091048790   0.277629641485655   0.625044060628154   1.0000000
B2   B   0.555523563198029   0.777850093132625   0.625031604138480   1.0000000
B2   B   0.888978343125255   0.777836515114899   0.625030722069506   1.0000000
B2   B   0.722257678800015   0.277733785315994   0.625126504778197   1.0000000
B2   B   0.055618198471135   0.777793261488728   0.124926330253186   1.0000000
B2   B   0.388844339230420   0.777802095462172   0.124967684952073   1.0000000
B2   B   0.222129215899503   0.277726108444138   0.124865850163352   1.0000000
B2   B   0.722250693650832   0.777860104987973   0.124993572651137   1.0000000
B2   B   0.555537102845476   0.277645711856656   0.124932474176718   1.0000000
B2   B   0.888907143487874   0.277777695846492   0.124908953943520   1.0000000
B2   B   0.055556861998805   0.444470633479257   0.625095171944627   1.0000000
B2   B   0.222196400773068   0.944368956868093   0.625090656905795   1.0000000
B2   B   0.555526694930930   0.944432521687209   0.625071113411192   1.0000000
B2   B   0.388779636383978   0.444467617261882   0.625042049385765   1.0000000
B2   B   0.888904368085304   0.944464095118649   0.625075288880271   1.0000000
B2   B   0.055562367069316   0.944417502490764   0.124915787534559   1.0000000
B2   B   0.722341086217933   0.444447721227078   0.625047048660894   1.0000000
B2   B   0.388848730345648   0.944376943764267   0.124920245334601   1.0000000
B2   B   0.222143272552690   0.444474240787374   0.124871992682810   1.0000000
B2   B   0.222185200957799   0.611146641668768   0.124922246322182   1.0000000
B2   B   0.555553898720587   0.444408365278537   0.125073080137318   1.0000000
B2   B   0.722213826672250   0.944468648907899   0.124918719018436   1.0000000
B2   B   0.888974029556863   0.444463205693342   0.124883365300987   1.0000000
B2   B   0.055610366527666   0.611141979108016   0.625089509869447   1.0000000
B2   B   0.222148578274697   0.110997421487500   0.625117707991185   1.0000000
B2   B   0.722350826790099   0.611197821211985   0.624907622088534   1.0000000
B2   B   0.555527956049930   0.111016413368075   0.625109101306759   1.0000000
B2   B   0.888881410011152   0.111107359227579   0.625076001574460   1.0000000
C2   C   0.555192513753930   0.606333595206998   0.375000000000000   1.0000000


