data_1
_audit_creation_method   'vasp2cif'
_cell_length_a    17.52789999999977
_cell_length_b    17.52789999999977
_cell_length_c    15.0
_cell_angle_alpha    90.0
_cell_angle_beta    90.0
_cell_angle_gamma    119.99999999999916

_symmetry_space_group_name_H-M    'P 1'
loop_
_atom_site_label
_atom_site_type_symbol
_atom_site_fract_x
_atom_site_fract_y
_atom_site_fract_z
_atom_site_occupancy
B2   B   0.905645885329083   0.953451508035643   0.104464938846585   1.0000000
B2   B   0.904328939031278   0.095757797087283   0.105202049359824   1.0000000
B2   B   0.903972561108122   0.238505332706882   0.112543806386094   1.0000000
B2   B   0.904241039482959   0.381337559241013   0.120362924176071   1.0000000
B2   B   0.905462692790076   0.524393113651552   0.122169849856642   1.0000000
B2   B   0.906784368986017   0.667708406729574   0.117513346825418   1.0000000
B2   B   0.907160436261231   0.811250511700544   0.110576867920111   1.0000000
B2   B   0.048051496156449   0.952056807148502   0.104471202643050   1.0000000
B2   B   0.046647820730177   0.094443253357857   0.104093874627782   1.0000000
B2   B   0.046221110249580   0.237623752885492   0.109130883788106   1.0000000
B2   B   0.046741760784025   0.380768132425324   0.115827717194628   1.0000000
B2   B   0.047996584679789   0.523707180344161   0.120027633939974   1.0000000
B2   B   0.048885747560323   0.666631360982842   0.117558524947403   1.0000000
B2   B   0.048854131339057   0.809479392589334   0.110567976016355   1.0000000
B2   B   0.190664138004919   0.951284905453099   0.109914333447758   1.0000000
B2   B   0.188883191271189   0.092976096633650   0.109539295428932   1.0000000
B2   B   0.187318909653248   0.235288472253241   0.111846705457081   1.0000000
B2   B   0.188502642111638   0.379702263406951   0.111428629890882   1.0000000
B2   B   0.190602179702268   0.523038641540492   0.113270644064063   1.0000000
B2   B   0.191644653217295   0.665961310656370   0.114975794708654   1.0000000
B2   B   0.191370707625158   0.808782783263114   0.113140505649320   1.0000000
B2   B   0.333533259977309   0.951290832520510   0.116271689447885   1.0000000
B2   B   0.332457690107946   0.093398086672226   0.115842817915960   1.0000000
B2   B   0.329211402406200   0.233343476680888   0.113901193447315   1.0000000
B2   B   0.327003349503252   0.376436929048578   0.102525935443019   1.0000000
B2   B   0.332805622704314   0.521076498073446   0.097320331848317   1.0000000
B2   B   0.334894545677484   0.665234380494217   0.107377367465365   1.0000000
B2   B   0.334166451977654   0.808493455716570   0.114561229797841   1.0000000
B2   B   0.476409528482620   0.952167682222088   0.119044421377605   1.0000000
B2   B   0.475768727144576   0.094740229848125   0.120455958025458   1.0000000
B2   B   0.474706260215002   0.236597645319235   0.114995417512481   1.0000000
B2   B   0.466708219710117   0.369788801420646   0.094274340333261   1.0000000
B2   B   0.479075190353410   0.667324601656136   0.097751920723325   1.0000000
B2   B   0.477074796377064   0.809531114996822   0.113338337647010   1.0000000
B2   B   0.619333878601026   0.953378168128093   0.115630286402401   1.0000000
B2   B   0.618785219198798   0.095906699446611   0.119429226026530   1.0000000
B2   B   0.618326649543208   0.238823539518680   0.119168037488635   1.0000000
B2   B   0.618103284189798   0.382145589139295   0.108547763059202   1.0000000
B2   B   0.630531634346318   0.533536844313842   0.094594563065765   1.0000000
B2   B   0.623734844906086   0.673148344919739   0.103394017417962   1.0000000
B2   B   0.620404227707609   0.811602026000684   0.112162540198346   1.0000000
B2   B   0.762492923522094   0.953876689734575   0.109426005635357   1.0000000
B2   B   0.761580519898617   0.096136233999534   0.112356772261053   1.0000000
B2   B   0.761299799788089   0.238858903859341   0.118203570336140   1.0000000
B2   B   0.761359873990261   0.381846649251361   0.119991367726131   1.0000000
B2   B   0.763625117012722   0.525499021697977   0.116310481149935   1.0000000
B2   B   0.766822802615623   0.670945068346358   0.115178111919511   1.0000000
B2   B   0.764843904405157   0.812794353439797   0.112896065717994   1.0000000
N2   N   0.953430081033006   0.905685507085758   0.104741514290211   1.0000000
N2   N   0.952020911861929   0.048053144351218   0.102089835990285   1.0000000
N2   N   0.951292952117190   0.190704285808251   0.107607731762933   1.0000000
N2   N   0.951461754168977   0.333531803397566   0.116727962615470   1.0000000
N2   N   0.952516197514167   0.476463912843555   0.122492105196408   1.0000000
N2   N   0.953587965600649   0.619497406670901   0.120202269446817   1.0000000
N2   N   0.953921719973089   0.762629808889976   0.112618422829321   1.0000000
N2   N   0.095762641364813   0.904358224567464   0.106776521331204   1.0000000
N2   N   0.094423058879966   0.046674867429476   0.104235054026714   1.0000000
N2   N   0.092976137148114   0.188977175745427   0.107809063263136   1.0000000
N2   N   0.093462219532634   0.332559290219152   0.112589389202197   1.0000000
N2   N   0.095108144736288   0.475868905728027   0.117821296067850   1.0000000
N2   N   0.096197542002666   0.618837527147190   0.118463497928578   1.0000000
N2   N   0.096218536780163   0.761636384115093   0.113257205395818   1.0000000
N2   N   0.238513994852912   0.903932114289204   0.112519869108122   1.0000000
N2   N   0.237522957222563   0.046233386865565   0.111423102909190   1.0000000
N2   N   0.234976683221503   0.187317698903031   0.113148580177379   1.0000000
N2   N   0.233414302206094   0.329516374979963   0.112621771216868   1.0000000
N2   N   0.237207174837897   0.474923233594118   0.109175505468773   1.0000000
N2   N   0.239156243254319   0.618309998831345   0.111978029787512   1.0000000
N2   N   0.238941943153136   0.761198151328299   0.114086388336393   1.0000000
N2   N   0.381302655993746   0.903972173136921   0.117433203283278   1.0000000
N2   N   0.380670821655536   0.046602446546971   0.118367880933029   1.0000000
N2   N   0.379489873328051   0.188534347332910   0.116240531320300   1.0000000
N2   N   0.374985710589486   0.327574381481343   0.107376643326286   1.0000000
N2   N   0.372597614709327   0.467756582894375   0.086546100592076   1.0000000
N2   N   0.382492502783344   0.617656697544984   0.098152207269334   1.0000000
N2   N   0.381810124932581   0.760975922890569   0.111867933557072   1.0000000
N2   N   0.524236971732895   0.905034425100624   0.117463745369095   1.0000000
N2   N   0.523662030675859   0.047660048826044   0.121089858427299   1.0000000
N2   N   0.523078950547969   0.190304995915410   0.119772436878608   1.0000000
N2   N   0.521911967563301   0.332417886893939   0.105654138659666   1.0000000
N2   N   0.532457458701749   0.627572195618909   0.087133883064671   1.0000000
N2   N   0.525186412399220   0.762896419050907   0.109765509287378   1.0000000
N2   N   0.667543724121558   0.906644398178351   0.112884189757493   1.0000000
N2   N   0.666564727949698   0.048658123135458   0.116277538607497   1.0000000
N2   N   0.666051015907969   0.191407467774232   0.119854967257918   1.0000000
N2   N   0.665544784979207   0.334651869272061   0.116906250305053   1.0000000
N2   N   0.667869364113482   0.478333561587094   0.106179512955972   1.0000000
N2   N   0.672638380761654   0.625199664060034   0.108085346730103   1.0000000
N2   N   0.670600667294861   0.766701702097950   0.113778829259606   1.0000000
N2   N   0.811124060861849   0.907118306176264   0.108412227372307   1.0000000
N2   N   0.809386211666181   0.048800861761758   0.107621300796075   1.0000000
N2   N   0.808818743345962   0.191294323431409   0.113925811761372   1.0000000
N2   N   0.808745303834100   0.334086633231932   0.120617246011948   1.0000000
N2   N   0.809881815854846   0.477090683876791   0.121331780975944   1.0000000
N2   N   0.811648679268311   0.620691945823649   0.117904987348779   1.0000000
N2   N   0.812832645708504   0.765176628264834   0.114472004259977   1.0000000
Sn2   Sn   0.495564969251915   0.504907577436626   0.034167062110433   1.0000000


