data_1
_audit_creation_method   'vasp2cif'
_cell_length_a    14.93631414619966
_cell_length_b    14.936314146199727
_cell_length_c    13.341276283792837
_cell_angle_alpha    90.0
_cell_angle_beta    90.0
_cell_angle_gamma    119.99999999999984

_symmetry_space_group_name_H-M    'P 1'
loop_
_atom_site_label
_atom_site_type_symbol
_atom_site_fract_x
_atom_site_fract_y
_atom_site_fract_z
_atom_site_occupancy
N2   N   0.111091872100321   0.055571011759018   0.124858929212573   1.0000000
N2   N   0.611113822252346   0.555592253573720   0.126267905762082   1.0000000
N2   N   0.444479139658714   0.055571011759018   0.124858929212572   1.0000000
N2   N   0.944424187404243   0.555532612741689   0.124836532494606   1.0000000
N2   N   0.777777777777779   0.055555555555557   0.124985285680015   1.0000000
N2   N   0.111111111111114   0.722222222222221   0.625015891471937   1.0000000
N2   N   0.444479139658714   0.722241461233016   0.625141070787487   1.0000000
N2   N   0.277741079759650   0.222219511081036   0.623732094237955   1.0000000
N2   N   0.777762321574302   0.722241461233016   0.625141070787479   1.0000000
N2   N   0.611134933090446   0.222198400242818   0.625047589799379   1.0000000
N2   N   0.944414921154811   0.222196459737270   0.625179602074122   1.0000000
N2   N   0.277800720591745   0.722224907996003   0.124836532494606   1.0000000
N2   N   0.111063467152333   0.222198400242818   0.124952410200690   1.0000000
N2   N   0.444478431321362   0.222219511081036   0.126267905762086   1.0000000
N2   N   0.611134933090446   0.722269866180948   0.124952410200690   1.0000000
N2   N   0.944424187404243   0.722224907996003   0.124836532494606   1.0000000
N2   N   0.777781538582456   0.222196459737270   0.124820397925833   1.0000000
N2   N   0.111108425337392   0.888909145929085   0.625163467505421   1.0000000
N2   N   0.444477243983589   0.888905288658448   0.625234096648888   1.0000000
N2   N   0.277741079759650   0.388854902011967   0.623732094237953   1.0000000
N2   N   0.611113822252346   0.388854902011967   0.623732094237955   1.0000000
N2   N   0.777781538582456   0.888918412178517   0.625179602074122   1.0000000
N2   N   0.944428044674881   0.388856089349740   0.625234096648888   1.0000000
N2   N   0.111091872100321   0.388854193674615   0.124858929212573   1.0000000
N2   N   0.277800720591745   0.888909145929085   0.124836532494606   1.0000000
N2   N   0.611136873595980   0.888918412178517   0.124820397925833   1.0000000
N2   N   0.444444444444443   0.388888888888886   0.126891859107827   1.0000000
N2   N   0.944428044674881   0.888905288658448   0.124765903351125   1.0000000
N2   N   0.777762321574302   0.388854193674615   0.124858929212572   1.0000000
N2   N   0.277790941965578   0.555542391367793   0.624810097891493   1.0000000
N2   N   0.111091872100321   0.055571011759018   0.625141070787487   1.0000000
N2   N   0.611113822252346   0.555592253573720   0.623732094237955   1.0000000
N2   N   0.444479139658714   0.055571011759018   0.625141070787487   1.0000000
N2   N   0.944424187404243   0.555532612741689   0.625163467505421   1.0000000
N2   N   0.111108425337392   0.555532612741689   0.124836532494606   1.0000000
N2   N   0.777777777777779   0.055555555555557   0.625014714320039   1.0000000
N2   N   0.277790941965578   0.055581883931116   0.125189902108523   1.0000000
N2   N   0.444478431321362   0.555592253573720   0.126267905762082   1.0000000
N2   N   0.777751449402179   0.555542391367793   0.125189902108523   1.0000000
N2   N   0.611136873595980   0.055551794750868   0.124820397925833   1.0000000
N2   N   0.444478431321362   0.555592253573720   0.623732094237955   1.0000000
N2   N   0.944414921154811   0.055551794750868   0.124820397925833   1.0000000
N2   N   0.277800720591745   0.722224907996003   0.625163467505421   1.0000000
N2   N   0.111063467152333   0.222198400242818   0.625047589799379   1.0000000
N2   N   0.444478431321362   0.222219511081036   0.623732094237955   1.0000000
N2   N   0.611134933090446   0.722269866180948   0.625047589799379   1.0000000
N2   N   0.944424187404243   0.722224907996003   0.625163467505421   1.0000000
N2   N   0.777781538582456   0.222196459737270   0.625179602074122   1.0000000
N2   N   0.111111111111114   0.722222222222221   0.124984108528021   1.0000000
N2   N   0.444479139658714   0.722241461233016   0.124858929212573   1.0000000
N2   N   0.277741079759650   0.222219511081036   0.126267905762086   1.0000000
N2   N   0.777762321574302   0.722241461233016   0.124858929212572   1.0000000
N2   N   0.611134933090446   0.222198400242818   0.124952410200690   1.0000000
N2   N   0.944414921154811   0.222196459737270   0.124820397925833   1.0000000
N2   N   0.111091872100321   0.388854193674615   0.625141070787487   1.0000000
N2   N   0.277800720591745   0.888909145929085   0.625163467505421   1.0000000
N2   N   0.611136873595980   0.888918412178517   0.625179602074122   1.0000000
N2   N   0.444444444444443   0.388888888888886   0.623108140892205   1.0000000
N2   N   0.944428044674881   0.888905288658448   0.625234096648888   1.0000000
N2   N   0.111108425337392   0.888909145929085   0.124836532494606   1.0000000
N2   N   0.777762321574302   0.388854193674615   0.625141070787487   1.0000000
N2   N   0.444477243983589   0.888905288658448   0.124765903351125   1.0000000
N2   N   0.277741079759650   0.388854902011967   0.126267905762082   1.0000000
N2   N   0.277790941965578   0.555542391367793   0.125189902108523   1.0000000
N2   N   0.611113822252346   0.388854902011967   0.126267905762086   1.0000000
N2   N   0.777781538582456   0.888918412178517   0.124820397925833   1.0000000
N2   N   0.944428044674881   0.388856089349740   0.124765903351125   1.0000000
N2   N   0.111108425337392   0.555532612741689   0.625163467505421   1.0000000
N2   N   0.277790941965578   0.055581883931116   0.624810097891490   1.0000000
N2   N   0.777751449402179   0.555542391367793   0.624810097891490   1.0000000
N2   N   0.611136873595980   0.055551794750868   0.625179602074122   1.0000000
N2   N   0.944414921154811   0.055551794750868   0.625179602074122   1.0000000
N2   N   0.055158579342088   0.110765656353846   0.375000000000000   1.0000000
N2   N   0.555985896204402   0.611971792408769   0.375000000000000   1.0000000
N2   N   0.388592791914766   0.109492704032358   0.375000000000000   1.0000000
N2   N   0.889580127456085   0.611456730394748   0.375000000000000   1.0000000
N2   N   0.722271752845424   0.111061580487900   0.375000000000000   1.0000000
N2   N   0.055557738969349   0.777775594363990   0.875000000000000   1.0000000
N2   N   0.388880552677308   0.777776512696477   0.875000000000000   1.0000000
N2   N   0.222225870733491   0.277779602033424   0.875000000000000   1.0000000
N2   N   0.722225796650854   0.777775722311151   0.875000000000000   1.0000000
N2   N   0.555553731299967   0.277779602033424   0.875000000000000   1.0000000
N2   N   0.888893022011206   0.277786044022267   0.875000000000000   1.0000000
N2   N   0.222037780134768   0.777685556734053   0.375000000000000   1.0000000
N2   N   0.055158579342088   0.277726256321563   0.375000000000000   1.0000000
N2   N   0.386193883242123   0.272387766484261   0.375000000000000   1.0000000
N2   N   0.555607077011774   0.778174753991195   0.375000000000000   1.0000000
N2   N   0.889439579700164   0.778117900851243   0.375000000000000   1.0000000
N2   N   0.722567676979574   0.277726256321563   0.375000000000000   1.0000000
N2   N   0.055556820636900   0.944437373314192   0.875000000000000   1.0000000
N2   N   0.388880552677308   0.944437373314192   0.875000000000000   1.0000000
N2   N   0.222222209997886   0.444450165246488   0.875000000000000   1.0000000
N2   N   0.555557928088564   0.444445630710946   0.875000000000000   1.0000000
N2   N   0.722221381647765   0.944442763295466   0.875000000000000   1.0000000
N2   N   0.888895960019137   0.444452780656021   0.875000000000000   1.0000000
N2   N   0.055215432482100   0.444655012182331   0.375000000000000   1.0000000
N2   N   0.221876602938606   0.943753205877243   0.375000000000000   1.0000000
N2   N   0.555538611715527   0.944435972524459   0.375000000000000   1.0000000
N2   N   0.386193883242112   0.447139450091205   0.375000000000000   1.0000000
N2   N   0.888897360808870   0.944435972524459   0.375000000000000   1.0000000
N2   N   0.723840629301043   0.444740541418563   0.375000000000000   1.0000000
N2   N   0.222217613668157   0.611115719665208   0.875000000000000   1.0000000
N2   N   0.055557611022161   0.111107536682431   0.875000000000000   1.0000000
N2   N   0.555553731299967   0.611107462599823   0.875000000000000   1.0000000
N2   N   0.388883168086841   0.111105378084774   0.875000000000000   1.0000000
N2   N   0.888898105997035   0.611115719665208   0.875000000000000   1.0000000
N2   N   0.055647776599285   0.611295553198551   0.375000000000000   1.0000000
N2   N   0.722221381647765   0.111111951685581   0.875000000000000   1.0000000
N2   N   0.220899912117563   0.109492704032364   0.375000000000000   1.0000000
N2   N   0.388592791914766   0.612433421215742   0.375000000000000   1.0000000
N2   N   0.723840629300968   0.612433421215742   0.375000000000000   1.0000000
N2   N   0.555607077011774   0.110765656353836   0.375000000000000   1.0000000
N2   N   0.388883168086841   0.611111123335385   0.875000000000000   1.0000000
N2   N   0.888789827642521   0.111061580487900   0.375000000000000   1.0000000
N2   N   0.222217855394636   0.777775594363990   0.875000000000000   1.0000000
N2   N   0.055557611022161   0.277783407673070   0.875000000000000   1.0000000
N2   N   0.388887702622382   0.277775405244778   0.875000000000000   1.0000000
N2   N   0.555549925660281   0.777775722311151   0.875000000000000   1.0000000
N2   N   0.888895960019137   0.777776512696477   0.875000000000000   1.0000000
N2   N   0.722225796650854   0.277783407673070   0.875000000000000   1.0000000
N2   N   0.055647776599281   0.777685556734053   0.375000000000000   1.0000000
N2   N   0.388678321151011   0.778117900851243   0.375000000000000   1.0000000
N2   N   0.221361540924530   0.277347437128951   0.375000000000000   1.0000000
N2   N   0.722567676979574   0.778174753991195   0.375000000000000   1.0000000
N2   N   0.555985896204402   0.277347437128951   0.375000000000000   1.0000000
N2   N   0.888897360808870   0.277794721617778   0.375000000000000   1.0000000
N2   N   0.055556820636900   0.444452780656021   0.875000000000000   1.0000000
N2   N   0.222217613668157   0.944435227336294   0.875000000000000   1.0000000
N2   N   0.555547289311104   0.944440311322123   0.875000000000000   1.0000000
N2   N   0.388887702622382   0.444445630710946   0.875000000000000   1.0000000
N2   N   0.888893022011206   0.944440311322123   0.875000000000000   1.0000000
N2   N   0.055215432482097   0.943893753633165   0.375000000000000   1.0000000
N2   N   0.722227955248553   0.444450165246488   0.875000000000000   1.0000000
N2   N   0.388678321151011   0.943893753633165   0.375000000000000   1.0000000
N2   N   0.220899912117600   0.444740541418563   0.375000000000000   1.0000000
N2   N   0.221876602938606   0.611456730394748   0.375000000000000   1.0000000
N2   N   0.560945566849085   0.447139450091205   0.375000000000000   1.0000000
N2   N   0.722271752845424   0.944543505690808   0.375000000000000   1.0000000
N2   N   0.889439579700164   0.444655012182331   0.375000000000000   1.0000000
N2   N   0.055557738969349   0.611115477938645   0.875000000000000   1.0000000
N2   N   0.222222209997886   0.111105378084774   0.875000000000000   1.0000000
N2   N   0.722227955248553   0.611111123335385   0.875000000000000   1.0000000
N2   N   0.555549925660281   0.111107536682431   0.875000000000000   1.0000000
N2   N   0.888890570037862   0.111111951685585   0.875000000000000   1.0000000
B2   B   0.111291788517304   0.055409309635883   0.375000000000000   1.0000000
B2   B   0.609818131056472   0.553087609400706   0.375000000000000   1.0000000
B2   B   0.444117521118606   0.055409309635883   0.375000000000000   1.0000000
B2   B   0.944526848678480   0.555683399668981   0.375000000000000   1.0000000
B2   B   0.777777777777779   0.055555555555557   0.375000000000000   1.0000000
B2   B   0.111111111111114   0.722222222222221   0.875000000000000   1.0000000
B2   B   0.444420922887790   0.722139987427965   0.875000000000000   1.0000000
B2   B   0.277877511128677   0.222307111330190   0.875000000000000   1.0000000
B2   B   0.777719064540325   0.722139987427965   0.875000000000000   1.0000000
B2   B   0.611051827665567   0.222281505667812   0.875000000000000   1.0000000
B2   B   0.944500534133058   0.222259911969752   0.875000000000000   1.0000000
B2   B   0.277649933664424   0.722176782342944   0.375000000000000   1.0000000
B2   B   0.112244070362485   0.222788701847919   0.375000000000000   1.0000000
B2   B   0.443269478344239   0.223515202276888   0.375000000000000   1.0000000
B2   B   0.610544631485452   0.721089262970858   0.375000000000000   1.0000000
B2   B   0.944526848678480   0.722176782342944   0.375000000000000   1.0000000
B2   B   0.777672996249576   0.222424402006532   0.375000000000000   1.0000000
B2   B   0.111133257579359   0.888914283310744   0.875000000000000   1.0000000
B2   B   0.444418967681930   0.888876150507680   0.875000000000000   1.0000000
B2   B   0.277877511128677   0.388903733131842   0.875000000000000   1.0000000
B2   B   0.611026222003235   0.388903733131842   0.875000000000000   1.0000000
B2   B   0.777759377836583   0.888832799200271   0.875000000000000   1.0000000
B2   B   0.944457182825648   0.388914365651399   0.875000000000000   1.0000000
B2   B   0.111291788517300   0.389215812214723   0.375000000000000   1.0000000
B2   B   0.277649933664424   0.888806484654849   0.375000000000000   1.0000000
B2   B   0.610908931326826   0.888581927576372   0.375000000000000   1.0000000
B2   B   0.944531838971370   0.888801494361959   0.375000000000000   1.0000000
B2   B   0.777924023697460   0.389215812214723   0.375000000000000   1.0000000
B2   B   0.277816540026210   0.555516793307155   0.875000000000000   1.0000000
B2   B   0.111193345905323   0.055614268793134   0.875000000000000   1.0000000
B2   B   0.611026222003235   0.555455822204667   0.875000000000000   1.0000000
B2   B   0.444420922887790   0.055614268793134   0.875000000000000   1.0000000
B2   B   0.944419050022585   0.555552307601926   0.875000000000000   1.0000000
B2   B   0.111156550990475   0.555683399668981   0.375000000000000   1.0000000
B2   B   0.777777777777779   0.055555555555557   0.875000000000000   1.0000000
B2   B   0.277854769335936   0.055709538671840   0.375000000000000   1.0000000
B2   B   0.443269478344206   0.553087609400706   0.375000000000000   1.0000000
B2   B   0.777623794661500   0.555478563997417   0.375000000000000   1.0000000
B2   B   0.610908931326826   0.055660337083792   0.375000000000000   1.0000000
B2   B   0.444429600201486   0.555455822204667   0.875000000000000   1.0000000
B2   B   0.944751405756956   0.055660337083799   0.375000000000000   1.0000000
B2   B   0.277781025731408   0.722200075753957   0.875000000000000   1.0000000
B2   B   0.111229678002267   0.222281505667812   0.875000000000000   1.0000000
B2   B   0.444429600201486   0.222307111330190   0.875000000000000   1.0000000
B2   B   0.611051827665567   0.722103655330998   0.875000000000000   1.0000000
B2   B   0.944419050022585   0.722200075753957   0.875000000000000   1.0000000
B2   B   0.777759377836583   0.222259911969752   0.875000000000000   1.0000000
B2   B   0.111111111111114   0.722222222222221   0.375000000000000   1.0000000
B2   B   0.444117521118606   0.722041544816033   0.375000000000000   1.0000000
B2   B   0.280245723932673   0.223515202276888   0.375000000000000   1.0000000
B2   B   0.777924023697460   0.722041544816033   0.375000000000000   1.0000000
B2   B   0.610544631485452   0.222788701847919   0.375000000000000   1.0000000
B2   B   0.944751405756956   0.222424402006532   0.375000000000000   1.0000000
B2   B   0.111193345905323   0.388912410445539   0.875000000000000   1.0000000
B2   B   0.277781025731408   0.888914283310744   0.875000000000000   1.0000000
B2   B   0.611073421363592   0.888832799200271   0.875000000000000   1.0000000
B2   B   0.444444444444443   0.388888888888886   0.875000000000000   1.0000000
B2   B   0.944457182825648   0.888876150507680   0.875000000000000   1.0000000
B2   B   0.111156550990476   0.888806484654849   0.375000000000000   1.0000000
B2   B   0.777719064540325   0.388912410445539   0.875000000000000   1.0000000
B2   B   0.444269655390616   0.888801494361959   0.375000000000000   1.0000000
B2   B   0.280245723932663   0.390063854989123   0.375000000000000   1.0000000
B2   B   0.277854769335936   0.555478563997417   0.375000000000000   1.0000000
B2   B   0.609818131056472   0.390063854989123   0.375000000000000   1.0000000
B2   B   0.777672996249576   0.888581927576372   0.375000000000000   1.0000000
B2   B   0.944531838971370   0.389063677942713   0.375000000000000   1.0000000
B2   B   0.111133257579359   0.555552307601926   0.875000000000000   1.0000000
B2   B   0.277816540026210   0.055633080052380   0.875000000000000   1.0000000
B2   B   0.777700253280916   0.555516793307155   0.875000000000000   1.0000000
B2   B   0.611073421363592   0.055573955496700   0.875000000000000   1.0000000
B2   B   0.944500534133058   0.055573955496700   0.875000000000000   1.0000000
B2   B   0.055688384947202   0.111245692487861   0.125355979249450   1.0000000
B2   B   0.555417344771258   0.610834689542495   0.126937223853839   1.0000000
B2   B   0.389027139900397   0.111478548716003   0.126214923357669   1.0000000
B2   B   0.888648096384272   0.610990714858833   0.125351043549065   1.0000000
B2   B   0.722205432224731   0.111127901108527   0.125269694467536   1.0000000
B2   B   0.055519769782066   0.777813563551317   0.624757960889684   1.0000000
B2   B   0.388982526073615   0.777717030343634   0.624796144993407   1.0000000
B2   B   0.222498643790835   0.277915988562088   0.623062776146091   1.0000000
B2   B   0.722087640845352   0.777644948386004   0.624644020750559   1.0000000
B2   B   0.555417344771258   0.277915988562088   0.623062776146091   1.0000000
B2   B   0.888872502196600   0.277745004393140   0.624809508974255   1.0000000
B2   B   0.222293793769212   0.777813563551317   0.125242039110400   1.0000000
B2   B   0.055688384947202   0.277776025792649   0.125355979249450   1.0000000
B2   B   0.389075486923720   0.278150973847471   0.129030130576901   1.0000000
B2   B   0.555557307540599   0.777644948386004   0.125355979249450   1.0000000
B2   B   0.888734504269980   0.777717030343634   0.125203855006630   1.0000000
B2   B   0.722087640845352   0.277776025792649   0.125355979249450   1.0000000
B2   B   0.055616302989708   0.944598829063348   0.624796144993407   1.0000000
B2   B   0.388982526073615   0.944598829063348   0.624796144993407   1.0000000
B2   B   0.222451408815636   0.444306193432932   0.623785076642322   1.0000000
B2   B   0.555182359485889   0.444257846409609   0.620969869423168   1.0000000
B2   B   0.722205432224731   0.944410864449663   0.624730305532390   1.0000000
B2   B   0.888734504269980   0.444350807259713   0.624796144993407   1.0000000
B2   B   0.055616302989708   0.444350807259713   0.125203855006630   1.0000000
B2   B   0.222342618474543   0.944685236949056   0.125351043549065   1.0000000
B2   B   0.555588328940170   0.944460831136729   0.125190491025825   1.0000000
B2   B   0.389075486923720   0.444257846409609   0.129030130576901   1.0000000
B2   B   0.888872502196600   0.944460831136729   0.125190491025825   1.0000000
B2   B   0.721854784617294   0.444306193432932   0.126214923357669   1.0000000
B2   B   0.222342618474543   0.610990714858833   0.624648956450916   1.0000000
B2   B   0.055688384947202   0.111245692487861   0.624644020750559   1.0000000
B2   B   0.555417344771258   0.610834689542495   0.623062776146085   1.0000000
B2   B   0.389027139900397   0.111478548716003   0.623785076642322   1.0000000
B2   B   0.888648096384272   0.610990714858833   0.624648956450916   1.0000000
B2   B   0.055519769782060   0.611039539564198   0.125242039110400   1.0000000
B2   B   0.722205432224731   0.111127901108527   0.624730305532390   1.0000000
B2   B   0.222451408815636   0.111478548716003   0.126214923357669   1.0000000
B2   B   0.389027139900397   0.610881924517671   0.126214923357669   1.0000000
B2   B   0.721854784617294   0.610881924517671   0.126214923357669   1.0000000
B2   B   0.555557307540599   0.111245692487861   0.125355979249450   1.0000000
B2   B   0.389027139900397   0.610881924517671   0.623785076642322   1.0000000
B2   B   0.888922468883666   0.111127901108527   0.125269694467536   1.0000000
B2   B   0.222293793769212   0.777813563551317   0.624757960889684   1.0000000
B2   B   0.055688384947202   0.277776025792649   0.624644020750559   1.0000000
B2   B   0.389075486923720   0.278150973847471   0.620969869423168   1.0000000
B2   B   0.555557307540599   0.777644948386004   0.624644020750559   1.0000000
B2   B   0.888734504269980   0.777717030343634   0.624796144993407   1.0000000
B2   B   0.722087640845352   0.277776025792649   0.624644020750559   1.0000000
B2   B   0.055519769782066   0.777813563551317   0.125242039110400   1.0000000
B2   B   0.388982526073615   0.777717030343634   0.125203855006630   1.0000000
B2   B   0.222498643790835   0.277915988562088   0.126937223853839   1.0000000
B2   B   0.722087640845352   0.777644948386004   0.125355979249450   1.0000000
B2   B   0.555417344771258   0.277915988562088   0.126937223853839   1.0000000
B2   B   0.888872502196600   0.277745004393140   0.125190491025825   1.0000000
B2   B   0.055616302989708   0.444350807259713   0.624796144993407   1.0000000
B2   B   0.222342618474543   0.944685236949056   0.624648956450916   1.0000000
B2   B   0.555588328940170   0.944460831136729   0.624809508974255   1.0000000
B2   B   0.389075486923720   0.444257846409609   0.620969869423168   1.0000000
B2   B   0.888872502196600   0.944460831136729   0.624809508974255   1.0000000
B2   B   0.055616302989708   0.944598829063348   0.125203855006630   1.0000000
B2   B   0.721854784617294   0.444306193432932   0.623785076642322   1.0000000
B2   B   0.388982526073615   0.944598829063348   0.125203855006630   1.0000000
B2   B   0.222451408815636   0.444306193432932   0.126214923357669   1.0000000
B2   B   0.222342618474543   0.610990714858833   0.125351043549065   1.0000000
B2   B   0.555182359485889   0.444257846409609   0.129030130576901   1.0000000
B2   B   0.722205432224731   0.944410864449663   0.125269694467536   1.0000000
B2   B   0.888734504269980   0.444350807259713   0.125203855006630   1.0000000
B2   B   0.055519769782066   0.611039539564198   0.624757960889684   1.0000000
B2   B   0.222451408815636   0.111478548716003   0.623785076642322   1.0000000
B2   B   0.721854784617294   0.610881924517671   0.623785076642322   1.0000000
B2   B   0.555557307540599   0.111245692487861   0.624644020750559   1.0000000
B2   B   0.888922468883666   0.111127901108527   0.624730305532390   1.0000000


