data_1
_audit_creation_method   'vasp2cif'
_cell_length_a    14.93631414619966
_cell_length_b    14.936314146199727
_cell_length_c    13.341276283792837
_cell_angle_alpha    90.0
_cell_angle_beta    90.0
_cell_angle_gamma    119.99999999999984

_symmetry_space_group_name_H-M    'P 1'
loop_
_atom_site_label
_atom_site_type_symbol
_atom_site_fract_x
_atom_site_fract_y
_atom_site_fract_z
_atom_site_occupancy
Ga2   Ga   0.555555555555557   0.444444444444443   0.375000000000000   1.0000000
N2   N   0.111097460235617   0.055547558260023   0.125000504615658   1.0000000
N2   N   0.611137468430525   0.555608270194386   0.124501553706563   1.0000000
N2   N   0.444444175867423   0.055550047659336   0.125051563522481   1.0000000
N2   N   0.944449952340664   0.555555824132577   0.125051563522481   1.0000000
N2   N   0.777782249721283   0.055557791527309   0.124970426964818   1.0000000
N2   N   0.111111832536387   0.722222582934858   0.624978511013731   1.0000000
N2   N   0.444444175867423   0.722227461541423   0.624948436477519   1.0000000
N2   N   0.277745595936774   0.222198486369416   0.625022556854702   1.0000000
N2   N   0.777801513630584   0.722254404063226   0.625022556854702   1.0000000
N2   N   0.611119557099320   0.222198486369416   0.625022556854702   1.0000000
N2   N   0.944442208472691   0.222217750278717   0.625029573035182   1.0000000
N2   N   0.277777417065142   0.722222582934858   0.125021488986269   1.0000000
N2   N   0.111090592597782   0.222211962965552   0.124974796112389   1.0000000
N2   N   0.444440382270055   0.222214097873446   0.125044877101449   1.0000000
N2   N   0.611119557099320   0.722254404063226   0.124977443145299   1.0000000
N2   N   0.944449952340664   0.722227461541423   0.125051563522481   1.0000000
N2   N   0.777788037034441   0.222211962965552   0.124974796112389   1.0000000
N2   N   0.111110524915981   0.888889475084019   0.624973952298400   1.0000000
N2   N   0.444445616834710   0.888889475084019   0.624973952298400   1.0000000
N2   N   0.277745595936774   0.388880442900680   0.625022556854702   1.0000000
N2   N   0.611137468430525   0.388862531569475   0.625498446293437   1.0000000
N2   N   0.777788037034441   0.888909407402218   0.625025203887611   1.0000000
N2   N   0.944452441739977   0.388883235308930   0.624999495384342   1.0000000
N2   N   0.111097460235617   0.388883235308930   0.125000504615658   1.0000000
N2   N   0.277777417065142   0.888888167463613   0.125021488986269   1.0000000
N2   N   0.611116764691070   0.888902539764383   0.125000504615658   1.0000000
N2   N   0.444391729805613   0.388862531569475   0.124501553706563   1.0000000
N2   N   0.944452441739977   0.888902539764383   0.125000504615658   1.0000000
N2   N   0.777801513630584   0.388880442900680   0.124977443145299   1.0000000
N2   N   0.277772538458577   0.555555824132577   0.624948436477519   1.0000000
N2   N   0.111097460235617   0.055547558260023   0.624999495384342   1.0000000
N2   N   0.611137468430525   0.555608270194386   0.625498446293437   1.0000000
N2   N   0.444444175867423   0.055550047659336   0.624948436477519   1.0000000
N2   N   0.944449952340664   0.555555824132577   0.624948436477519   1.0000000
N2   N   0.111110524915981   0.555554383165291   0.125026047701600   1.0000000
N2   N   0.777782249721283   0.055557791527309   0.625029573035182   1.0000000
N2   N   0.277772538458577   0.055550047659336   0.125051563522481   1.0000000
N2   N   0.444440382270055   0.555559617729945   0.125044877101449   1.0000000
N2   N   0.777785902126554   0.555559617729945   0.125044877101449   1.0000000
N2   N   0.611116764691070   0.055547558260023   0.125000504615658   1.0000000
N2   N   0.444440382270055   0.555559617729945   0.624955122898551   1.0000000
N2   N   0.944442208472691   0.055557791527309   0.124970426964818   1.0000000
N2   N   0.277777417065142   0.722222582934858   0.624978511013731   1.0000000
N2   N   0.111090592597782   0.222211962965552   0.625025203887611   1.0000000
N2   N   0.444440382270055   0.222214097873446   0.624955122898551   1.0000000
N2   N   0.611119557099320   0.722254404063226   0.625022556854702   1.0000000
N2   N   0.944449952340664   0.722227461541423   0.624948436477519   1.0000000
N2   N   0.777788037034441   0.222211962965552   0.625025203887611   1.0000000
N2   N   0.111111832536387   0.722222582934858   0.125021488986269   1.0000000
N2   N   0.444444175867423   0.722227461541423   0.125051563522481   1.0000000
N2   N   0.277745595936774   0.222198486369416   0.124977443145299   1.0000000
N2   N   0.777801513630584   0.722254404063226   0.124977443145299   1.0000000
N2   N   0.611119557099320   0.222198486369416   0.124977443145299   1.0000000
N2   N   0.944442208472691   0.222217750278717   0.124970426964818   1.0000000
N2   N   0.111097460235617   0.388883235308930   0.624999495384342   1.0000000
N2   N   0.277777417065142   0.888888167463613   0.624978511013731   1.0000000
N2   N   0.611116764691070   0.888902539764383   0.624999495384342   1.0000000
N2   N   0.444391729805613   0.388862531569475   0.625498446293437   1.0000000
N2   N   0.944452441739977   0.888902539764383   0.624999495384342   1.0000000
N2   N   0.111110524915981   0.888889475084019   0.125026047701600   1.0000000
N2   N   0.777801513630584   0.388880442900680   0.625022556854702   1.0000000
N2   N   0.444445616834710   0.888889475084019   0.125026047701600   1.0000000
N2   N   0.277745595936774   0.388880442900680   0.124977443145299   1.0000000
N2   N   0.277772538458577   0.555555824132577   0.125051563522481   1.0000000
N2   N   0.611137468430525   0.388862531569475   0.124501553706563   1.0000000
N2   N   0.777788037034441   0.888909407402218   0.124974796112389   1.0000000
N2   N   0.944452441739977   0.388883235308930   0.125000504615658   1.0000000
N2   N   0.111110524915981   0.555554383165291   0.624973952298400   1.0000000
N2   N   0.277772538458577   0.055550047659336   0.624948436477519   1.0000000
N2   N   0.777785902126554   0.555559617729945   0.624955122898551   1.0000000
N2   N   0.611116764691070   0.055547558260023   0.624999495384342   1.0000000
N2   N   0.944442208472691   0.055557791527309   0.625029573035182   1.0000000
N2   N   0.054162868223535   0.110180792042755   0.375000000000000   1.0000000
N2   N   0.556773064601051   0.622538333124153   0.375000000000000   1.0000000
N2   N   0.387874416760516   0.109082166854368   0.375000000000000   1.0000000
N2   N   0.890917833145632   0.612125583239484   0.375000000000000   1.0000000
N2   N   0.722684590485885   0.110180792042755   0.375000000000000   1.0000000
N2   N   0.055555855617677   0.777778860004419   0.875000000000000   1.0000000
N2   N   0.388889671053407   0.777778860004419   0.875000000000000   1.0000000
N2   N   0.222221300164629   0.277777316748982   0.875000000000000   1.0000000
N2   N   0.722222683251017   0.777778699835364   0.875000000000000   1.0000000
N2   N   0.555554087112602   0.277774608849020   0.875000000000000   1.0000000
N2   N   0.888890410210955   0.277778729882282   0.875000000000000   1.0000000
N2   N   0.222222222222221   0.777777777777779   0.375000000000000   1.0000000
N2   N   0.054162868223535   0.277315409514115   0.375000000000000   1.0000000
N2   N   0.377461666875848   0.267568064810234   0.375000000000000   1.0000000
N2   N   0.555240352905199   0.782289206594722   0.375000000000000   1.0000000
N2   N   0.893715520356188   0.782289206594722   0.375000000000000   1.0000000
N2   N   0.724503583885201   0.275496416114799   0.375000000000000   1.0000000
N2   N   0.055555841582020   0.944444158417980   0.875000000000000   1.0000000
N2   N   0.388889671053407   0.944444144382323   0.875000000000000   1.0000000
N2   N   0.222219934850574   0.444445019234870   0.875000000000000   1.0000000
N2   N   0.555555555555557   0.444444444444443   0.875000000000000   1.0000000
N2   N   0.722221270117718   0.944445013662008   0.875000000000000   1.0000000
N2   N   0.888891751050960   0.444445019234870   0.875000000000000   1.0000000
N2   N   0.055791048705600   0.444915430744529   0.375000000000000   1.0000000
N2   N   0.221905033106103   0.943467893139545   0.375000000000000   1.0000000
N2   N   0.555084569255471   0.944208951294400   0.375000000000000   1.0000000
N2   N   0.377461666875848   0.443226935398949   0.375000000000000   1.0000000
N2   N   0.889819207957245   0.945837131776465   0.375000000000000   1.0000000
N2   N   0.732431935189766   0.443226935398949   0.375000000000000   1.0000000
N2   N   0.222221139995581   0.611110328946593   0.875000000000000   1.0000000
N2   N   0.055554986337992   0.111109589789045   0.875000000000000   1.0000000
N2   N   0.555554087112602   0.611112811596918   0.875000000000000   1.0000000
N2   N   0.388888487967351   0.111110309268044   0.875000000000000   1.0000000
N2   N   0.888889690731956   0.611111512032649   0.875000000000000   1.0000000
N2   N   0.056532106860454   0.611770473299886   0.375000000000000   1.0000000
N2   N   0.722221270117718   0.111109589789045   0.875000000000000   1.0000000
N2   N   0.217710793405278   0.106284479643813   0.375000000000000   1.0000000
N2   N   0.387874416760516   0.612125583239484   0.375000000000000   1.0000000
N2   N   0.732431935189766   0.622538333124153   0.375000000000000   1.0000000
N2   N   0.555240352905199   0.106284479643813   0.375000000000000   1.0000000
N2   N   0.388888487967351   0.611111512032649   0.875000000000000   1.0000000
N2   N   0.888888888888886   0.111111111111114   0.375000000000000   1.0000000
N2   N   0.222222222222221   0.777777777777779   0.875000000000000   1.0000000
N2   N   0.055554986337992   0.277778729882282   0.875000000000000   1.0000000
N2   N   0.388887188403082   0.277774608849020   0.875000000000000   1.0000000
N2   N   0.555554980765130   0.777780065149426   0.875000000000000   1.0000000
N2   N   0.888891751050960   0.777780065149426   0.875000000000000   1.0000000
N2   N   0.722222683251017   0.277777316748982   0.875000000000000   1.0000000
N2   N   0.056532106860454   0.778094966893897   0.375000000000000   1.0000000
N2   N   0.388229526700114   0.778094966893897   0.375000000000000   1.0000000
N2   N   0.217659498896263   0.275496416114799   0.375000000000000   1.0000000
N2   N   0.724503583885201   0.782340501103737   0.375000000000000   1.0000000
N2   N   0.556773064601051   0.267568064810234   0.375000000000000   1.0000000
N2   N   0.889819207957245   0.277315409514115   0.375000000000000   1.0000000
N2   N   0.055555841582020   0.444445016497369   0.875000000000000   1.0000000
N2   N   0.222221139995581   0.944444144382323   0.875000000000000   1.0000000
N2   N   0.555554983502631   0.944444158417980   0.875000000000000   1.0000000
N2   N   0.388887188403082   0.444445912887398   0.875000000000000   1.0000000
N2   N   0.888890410210955   0.944445013662008   0.875000000000000   1.0000000
N2   N   0.055791048705600   0.944208951294400   0.375000000000000   1.0000000
N2   N   0.722225391150980   0.444445912887398   0.875000000000000   1.0000000
N2   N   0.388229526700114   0.943467893139545   0.375000000000000   1.0000000
N2   N   0.217710793405278   0.444759647094801   0.375000000000000   1.0000000
N2   N   0.221905033106103   0.611770473299886   0.375000000000000   1.0000000
N2   N   0.722684590485885   0.945837131776465   0.375000000000000   1.0000000
N2   N   0.893715520356188   0.444759647094801   0.375000000000000   1.0000000
N2   N   0.055555855617677   0.611110328946593   0.875000000000000   1.0000000
N2   N   0.222219934850574   0.111108248949040   0.875000000000000   1.0000000
N2   N   0.722225391150980   0.611112811596918   0.875000000000000   1.0000000
N2   N   0.555554980765130   0.111108248949040   0.875000000000000   1.0000000
N2   N   0.888888888888886   0.111111111111114   0.875000000000000   1.0000000
B2   B   0.108532362050345   0.053582526215320   0.375000000000000   1.0000000
B2   B   0.625210267601457   0.583753868536250   0.375000000000000   1.0000000
B2   B   0.444072707239627   0.053817315301857   0.375000000000000   1.0000000
B2   B   0.946182684698143   0.555927292760373   0.375000000000000   1.0000000
B2   B   0.778402265376766   0.055867799355051   0.375000000000000   1.0000000
B2   B   0.111107698530510   0.722220515931916   0.875000000000000   1.0000000
B2   B   0.444448095989333   0.722218894121420   0.875000000000000   1.0000000
B2   B   0.277787231104124   0.222229768967964   0.875000000000000   1.0000000
B2   B   0.777770231032036   0.722212768895876   0.875000000000000   1.0000000
B2   B   0.611109204530511   0.222229768967964   0.875000000000000   1.0000000
B2   B   0.944444445700446   0.222222224734227   0.875000000000000   1.0000000
B2   B   0.277498697262063   0.722501302737937   0.375000000000000   1.0000000
B2   B   0.108058264013125   0.220695798673223   0.375000000000000   1.0000000
B2   B   0.443123206923173   0.219579747179674   0.375000000000000   1.0000000
B2   B   0.612815982240036   0.731053965011731   0.375000000000000   1.0000000
B2   B   0.946182684698143   0.723588725271106   0.375000000000000   1.0000000
B2   B   0.779304201326777   0.220695798673223   0.375000000000000   1.0000000
B2   B   0.111109206418812   0.888890793581188   0.875000000000000   1.0000000
B2   B   0.444448253829047   0.888890793581188   0.875000000000000   1.0000000
B2   B   0.277787231104124   0.388890795469489   0.875000000000000   1.0000000
B2   B   0.611111371803582   0.388888628196418   0.875000000000000   1.0000000
B2   B   0.777775769276876   0.888884871887080   0.875000000000000   1.0000000
B2   B   0.944441514621414   0.388887055433653   0.875000000000000   1.0000000
B2   B   0.108532362050345   0.388283169168354   0.375000000000000   1.0000000
B2   B   0.277498697262063   0.888330727857454   0.375000000000000   1.0000000
B2   B   0.611716830831646   0.891467637949655   0.375000000000000   1.0000000
B2   B   0.416246131463750   0.374789732398543   0.375000000000000   1.0000000
B2   B   0.946417473784680   0.891467637949655   0.375000000000000   1.0000000
B2   B   0.784904649438366   0.387184017759964   0.375000000000000   1.0000000
B2   B   0.277781105878580   0.555551904010667   0.875000000000000   1.0000000
B2   B   0.111112207478918   0.055558485378586   0.875000000000000   1.0000000
B2   B   0.611111371803582   0.555556076940500   0.875000000000000   1.0000000
B2   B   0.444448095989333   0.055562535201249   0.875000000000000   1.0000000
B2   B   0.944437464798751   0.555551904010667   0.875000000000000   1.0000000
B2   B   0.111270541947912   0.555874417229160   0.375000000000000   1.0000000
B2   B   0.777777775265773   0.055555554299554   0.875000000000000   1.0000000
B2   B   0.276411274728894   0.053817315301857   0.375000000000000   1.0000000
B2   B   0.443123206923173   0.556876793076827   0.375000000000000   1.0000000
B2   B   0.780420252820326   0.556876793076827   0.375000000000000   1.0000000
B2   B   0.611716830831646   0.053582526215320   0.375000000000000   1.0000000
B2   B   0.444450750638634   0.555549249361373   0.875000000000000   1.0000000
B2   B   0.944132200644949   0.055867799355051   0.375000000000000   1.0000000
B2   B   0.277779484068084   0.722220515931916   0.875000000000000   1.0000000
B2   B   0.111115128112920   0.222224230723124   0.875000000000000   1.0000000
B2   B   0.444450750638634   0.222234834610597   0.875000000000000   1.0000000
B2   B   0.611109204530511   0.722212768895876   0.875000000000000   1.0000000
B2   B   0.944437464798751   0.722218894121420   0.875000000000000   1.0000000
B2   B   0.777775769276876   0.222224230723124   0.875000000000000   1.0000000
B2   B   0.111669272142546   0.722501302737937   0.375000000000000   1.0000000
B2   B   0.444072707239627   0.723588725271106   0.375000000000000   1.0000000
B2   B   0.268946034988269   0.215095350561634   0.375000000000000   1.0000000
B2   B   0.784904649438366   0.731053965011731   0.375000000000000   1.0000000
B2   B   0.612815982240036   0.215095350561634   0.375000000000000   1.0000000
B2   B   0.944132200644949   0.221597734623234   0.375000000000000   1.0000000
B2   B   0.111112207478918   0.388887055433653   0.875000000000000   1.0000000
B2   B   0.277779484068084   0.888892301469490   0.875000000000000   1.0000000
B2   B   0.611112944566347   0.888887792521082   0.875000000000000   1.0000000
B2   B   0.444443923059500   0.388888628196418   0.875000000000000   1.0000000
B2   B   0.944441514621414   0.888887792521082   0.875000000000000   1.0000000
B2   B   0.111270541947912   0.888729458052088   0.375000000000000   1.0000000
B2   B   0.777770231032036   0.388890795469489   0.875000000000000   1.0000000
B2   B   0.444125582770840   0.888729458052088   0.375000000000000   1.0000000
B2   B   0.268946034988269   0.387184017759964   0.375000000000000   1.0000000
B2   B   0.276411274728894   0.555927292760373   0.375000000000000   1.0000000
B2   B   0.625210267601457   0.374789732398543   0.375000000000000   1.0000000
B2   B   0.779304201326777   0.891941735986875   0.375000000000000   1.0000000
B2   B   0.946417473784680   0.388283169168354   0.375000000000000   1.0000000
B2   B   0.111109206418812   0.555551746170953   0.875000000000000   1.0000000
B2   B   0.277781105878580   0.055562535201249   0.875000000000000   1.0000000
B2   B   0.777765165389403   0.555549249361373   0.875000000000000   1.0000000
B2   B   0.611112944566347   0.055558485378586   0.875000000000000   1.0000000
B2   B   0.944444445700446   0.055555554299554   0.875000000000000   1.0000000
B2   B   0.055542472426317   0.111111045605532   0.124986102958880   1.0000000
B2   B   0.555560114388520   0.611123530165367   0.124872872248041   1.0000000
B2   B   0.388895844438207   0.111125022209749   0.125016915252196   1.0000000
B2   B   0.888874977790251   0.611104155561793   0.125016915252196   1.0000000
B2   B   0.722235239845880   0.111111045605532   0.124986102958880   1.0000000
B2   B   0.055549746040099   0.777779313045664   0.625001728771638   1.0000000
B2   B   0.388896233672222   0.777779313045664   0.625001728771638   1.0000000
B2   B   0.222207951542634   0.277770642437988   0.625031383994218   1.0000000
B2   B   0.722229357562012   0.777792048457366   0.625031383994218   1.0000000
B2   B   0.555560114388520   0.277769917556496   0.625127127751959   1.0000000
B2   B   0.888888954394468   0.277764760154120   0.625013897041120   1.0000000
B2   B   0.222222222222221   0.777777777777779   0.124991324726979   1.0000000
B2   B   0.055542472426317   0.277764760154120   0.124986102958880   1.0000000
B2   B   0.388876469834633   0.277769917556496   0.124872872248041   1.0000000
B2   B   0.555572058124492   0.777787828297025   0.124994819658981   1.0000000
B2   B   0.888882436839197   0.777787828297025   0.124994819658981   1.0000000
B2   B   0.722229357562012   0.277770642437988   0.124968616005783   1.0000000
B2   B   0.055548458085601   0.944451541914399   0.625009686415205   1.0000000
B2   B   0.388896233672222   0.944450253959901   0.625001728771638   1.0000000
B2   B   0.222212171702975   0.444427941875508   0.625005180341019   1.0000000
B2   B   0.555555555555557   0.444444444444443   0.625464558348648   1.0000000
B2   B   0.722235239845880   0.944457527573683   0.625013897041120   1.0000000
B2   B   0.888882436839197   0.444427941875508   0.625005180341019   1.0000000
B2   B   0.055548458085601   0.444430249504531   0.124990313584795   1.0000000
B2   B   0.222220686954343   0.944450253959901   0.124998271228362   1.0000000
B2   B   0.555569750495469   0.944451541914399   0.124990313584795   1.0000000
B2   B   0.388876469834633   0.444439885611480   0.124872872248041   1.0000000
B2   B   0.888888954394468   0.944457527573683   0.124986102958880   1.0000000
B2   B   0.722230082443504   0.444439885611480   0.124872872248041   1.0000000
B2   B   0.222220686954343   0.611103766327777   0.625001728771638   1.0000000
B2   B   0.055542472426317   0.111111045605532   0.625013897041120   1.0000000
B2   B   0.555560114388520   0.611123530165367   0.625127127751959   1.0000000
B2   B   0.388895844438207   0.111125022209749   0.624983084747804   1.0000000
B2   B   0.888874977790251   0.611104155561793   0.624983084747804   1.0000000
B2   B   0.055549746040099   0.611103766327777   0.124998271228362   1.0000000
B2   B   0.722235239845880   0.111111045605532   0.625013897041120   1.0000000
B2   B   0.222212171702975   0.111117563160803   0.124994819658981   1.0000000
B2   B   0.388895844438207   0.611104155561793   0.125016915252196   1.0000000
B2   B   0.722230082443504   0.611123530165367   0.124872872248041   1.0000000
B2   B   0.555572058124492   0.111117563160803   0.124994819658981   1.0000000
B2   B   0.388895844438207   0.611104155561793   0.624983084747804   1.0000000
B2   B   0.888888888888886   0.111111111111114   0.124983184301832   1.0000000
B2   B   0.222222222222221   0.777777777777779   0.625008675273021   1.0000000
B2   B   0.055542472426317   0.277764760154120   0.625013897041120   1.0000000
B2   B   0.388876469834633   0.277769917556496   0.625127127751959   1.0000000
B2   B   0.555572058124492   0.777787828297025   0.625005180341019   1.0000000
B2   B   0.888882436839197   0.777787828297025   0.625005180341019   1.0000000
B2   B   0.722229357562012   0.277770642437988   0.625031383994218   1.0000000
B2   B   0.055549746040099   0.777779313045664   0.124998271228362   1.0000000
B2   B   0.388896233672222   0.777779313045664   0.124998271228362   1.0000000
B2   B   0.222207951542634   0.277770642437988   0.124968616005783   1.0000000
B2   B   0.722229357562012   0.777792048457366   0.124968616005783   1.0000000
B2   B   0.555560114388520   0.277769917556496   0.124872872248041   1.0000000
B2   B   0.888888954394468   0.277764760154120   0.124986102958880   1.0000000
B2   B   0.055548458085601   0.444430249504531   0.625009686415205   1.0000000
B2   B   0.222220686954343   0.944450253959901   0.625001728771638   1.0000000
B2   B   0.555569750495469   0.944451541914399   0.625009686415205   1.0000000
B2   B   0.388876469834633   0.444439885611480   0.625127127751959   1.0000000
B2   B   0.888888954394468   0.944457527573683   0.625013897041120   1.0000000
B2   B   0.055548458085601   0.944451541914399   0.124990313584795   1.0000000
B2   B   0.722230082443504   0.444439885611480   0.625127127751959   1.0000000
B2   B   0.388896233672222   0.944450253959901   0.124998271228362   1.0000000
B2   B   0.222212171702975   0.444427941875508   0.124994819658981   1.0000000
B2   B   0.222220686954343   0.611103766327777   0.124998271228362   1.0000000
B2   B   0.555555555555557   0.444444444444443   0.124535441651352   1.0000000
B2   B   0.722235239845880   0.944457527573683   0.124986102958880   1.0000000
B2   B   0.888882436839197   0.444427941875508   0.124994819658981   1.0000000
B2   B   0.055549746040099   0.611103766327777   0.625001728771638   1.0000000
B2   B   0.222212171702975   0.111117563160803   0.625005180341019   1.0000000
B2   B   0.722230082443504   0.611123530165367   0.625127127751959   1.0000000
B2   B   0.555572058124492   0.111117563160803   0.625005180341019   1.0000000
B2   B   0.888888888888886   0.111111111111114   0.625016815698168   1.0000000


