data_1
_audit_creation_method   'vasp2cif'
_cell_length_a    17.52789999999977
_cell_length_b    17.52789999999977
_cell_length_c    15.0
_cell_angle_alpha    90.0
_cell_angle_beta    90.0
_cell_angle_gamma    119.99999999999916

_symmetry_space_group_name_H-M    'P 1'
loop_
_atom_site_label
_atom_site_type_symbol
_atom_site_fract_x
_atom_site_fract_y
_atom_site_fract_z
_atom_site_occupancy
B2   B   0.909353268866354   0.954375402706534   0.110725589009430   1.0000000
B2   B   0.908983666520709   0.096183132688253   0.110769455736791   1.0000000
B2   B   0.908864401898742   0.238130900643370   0.110734020393550   1.0000000
B2   B   0.908850759612573   0.380415133496936   0.110705463350839   1.0000000
B2   B   0.908289332122789   0.522976879438413   0.110736511463407   1.0000000
B2   B   0.907434358742100   0.665558348318875   0.110756682349473   1.0000000
B2   B   0.904282777228910   0.807317773707233   0.110719662740175   1.0000000
B2   B   0.050539481313393   0.953833022084302   0.110699291649361   1.0000000
B2   B   0.052706276780866   0.097637432783624   0.110770519278190   1.0000000
B2   B   0.051925573324862   0.239096960526626   0.110798541715470   1.0000000
B2   B   0.050895437696694   0.381296209422144   0.110746395093693   1.0000000
B2   B   0.049779500674646   0.524363719159923   0.110728520492998   1.0000000
B2   B   0.049425316435263   0.667505429477901   0.110742959540777   1.0000000
B2   B   0.049120741459485   0.810442232415201   0.110729375877146   1.0000000
B2   B   0.193319643127100   0.954959381400540   0.110698574459340   1.0000000
B2   B   0.196590885998813   0.100109278730362   0.110711735275506   1.0000000
B2   B   0.196375188396372   0.241676122638300   0.110749103008118   1.0000000
B2   B   0.193524097918244   0.382003576745831   0.110750781805563   1.0000000
B2   B   0.190676443363689   0.524946931762637   0.110736019920609   1.0000000
B2   B   0.190518145248316   0.668419756970769   0.110746586498323   1.0000000
B2   B   0.192008092590840   0.811519930449916   0.110732415030342   1.0000000
B2   B   0.335622962844981   0.954755731110929   0.110718646706777   1.0000000
B2   B   0.337519503222119   0.098872249279725   0.110722680532582   1.0000000
B2   B   0.344299239400372   0.248004283354883   0.110755444627555   1.0000000
B2   B   0.339395348691235   0.385648377283482   0.110769453358119   1.0000000
B2   B   0.330759762386296   0.525850745770836   0.110719731541116   1.0000000
B2   B   0.330438183735413   0.669113386308664   0.110718887052687   1.0000000
B2   B   0.334479534438541   0.811923251866581   0.110760259081235   1.0000000
B2   B   0.478150774324581   0.953483004009436   0.110751999389100   1.0000000
B2   B   0.479264633227918   0.095846448232659   0.110755480349920   1.0000000
B2   B   0.481256803219316   0.239181838847384   0.110758050617678   1.0000000
B2   B   0.498834608075850   0.396417530418755   0.110799579763590   1.0000000
B2   B   0.467988215927555   0.666331359970164   0.110768810502476   1.0000000
B2   B   0.477130617402385   0.810926142295415   0.110748992271364   1.0000000
B2   B   0.621320904269739   0.954548579544708   0.110756897579123   1.0000000
B2   B   0.622060298502556   0.095003372962209   0.110739366572295   1.0000000
B2   B   0.622924583186032   0.235347769676741   0.110741189521326   1.0000000
B2   B   0.624904818980084   0.374552668522348   0.110778311945430   1.0000000
B2   B   0.611527312949547   0.499788158199157   0.110799222128106   1.0000000
B2   B   0.620680253399623   0.814437473630684   0.110698147533306   1.0000000
B2   B   0.765306515457726   0.953919756550679   0.110745032943372   1.0000000
B2   B   0.765535090785149   0.095569188748827   0.110723849690104   1.0000000
B2   B   0.765983911601026   0.237040225956002   0.110713964218906   1.0000000
B2   B   0.766856465822707   0.378586097830123   0.110705929926679   1.0000000
B2   B   0.765755885794147   0.519593293900451   0.110742216790119   1.0000000
B2   B   0.760889041258863   0.656919904561302   0.110769344703410   1.0000000
B2   B   0.766485197290293   0.812793860675330   0.110731132589774   1.0000000
Ga2   Ga   0.614832939936662   0.659124891481896   0.110745415704221   1.0000000
N2   N   0.954541127304412   0.904415304304049   0.110692323585191   1.0000000
N2   N   0.957367363573371   0.049498827047806   0.110752463031683   1.0000000
N2   N   0.956615251723671   0.191059159896079   0.110753400589057   1.0000000
N2   N   0.956109671673451   0.333052311849813   0.110713218985883   1.0000000
N2   N   0.955468578917869   0.475585448056322   0.110705649631556   1.0000000
N2   N   0.955060134463023   0.618506529087774   0.110736604732574   1.0000000
N2   N   0.953724679484774   0.761333782100976   0.110721663688942   1.0000000
N2   N   0.097769325569644   0.906152774289628   0.110688717587424   1.0000000
N2   N   0.100088221516865   0.050078737265676   0.110708832968121   1.0000000
N2   N   0.100400217603035   0.192561712236549   0.110767111234670   1.0000000
N2   N   0.098278118132360   0.333797273677991   0.110761851960474   1.0000000
N2   N   0.096332883952860   0.476414477466008   0.110726704958411   1.0000000
N2   N   0.096068895173686   0.619773035321492   0.110722942064070   1.0000000
N2   N   0.096747977885405   0.763056778048258   0.110721763533950   1.0000000
N2   N   0.240248225939113   0.906936782916282   0.110696514666381   1.0000000
N2   N   0.242097257011214   0.050560553860537   0.110684025781699   1.0000000
N2   N   0.246271543386643   0.196351004353629   0.110713632801277   1.0000000
N2   N   0.242619710576032   0.335910809976514   0.110733853957088   1.0000000
N2   N   0.236692059609097   0.476637333216665   0.110706596175079   1.0000000
N2   N   0.236040964364134   0.620355279171914   0.110714078206935   1.0000000
N2   N   0.239000942758206   0.763934855131403   0.110735981710242   1.0000000
N2   N   0.382798564942368   0.907039360234795   0.110731004086602   1.0000000
N2   N   0.383965335986038   0.049801453915651   0.110719110848708   1.0000000
N2   N   0.386299377979376   0.194171247928178   0.110724685891200   1.0000000
N2   N   0.395931993552752   0.345760544975857   0.110769515951337   1.0000000
N2   N   0.377135838642057   0.478657836260225   0.110735166335575   1.0000000
N2   N   0.374001844574540   0.621020753500937   0.110707756401669   1.0000000
N2   N   0.381280316338815   0.764655319335835   0.110734118219798   1.0000000
N2   N   0.525794079322383   0.906418838958306   0.110742291446152   1.0000000
N2   N   0.526720979826322   0.048232504643179   0.110739853191213   1.0000000
N2   N   0.527881898179711   0.190055572869569   0.110740873886213   1.0000000
N2   N   0.530751553278800   0.332602563208661   0.110753425276337   1.0000000
N2   N   0.467170855742825   0.520861394986551   0.110758685745116   1.0000000
N2   N   0.500814456682571   0.609796640291499   0.110744362655616   1.0000000
N2   N   0.524294795773320   0.763542578756944   0.110714579349985   1.0000000
N2   N   0.669675718467886   0.909053166144554   0.110717374428239   1.0000000
N2   N   0.670198263607439   0.048864846436628   0.110722851001055   1.0000000
N2   N   0.670870620773494   0.189054816662632   0.110719956880913   1.0000000
N2   N   0.672505367917510   0.328824816201674   0.110717984222730   1.0000000
N2   N   0.672265955835620   0.467363837143558   0.110751224184535   1.0000000
N2   N   0.667317384092051   0.596551903249367   0.110737112759328   1.0000000
N2   N   0.674484214413304   0.775767828798035   0.110657818969516   1.0000000
N2   N   0.815003891728149   0.907977675108612   0.110731705348527   1.0000000
N2   N   0.813683527750505   0.048849679204196   0.110730095468907   1.0000000
N2   N   0.813785402625130   0.190278455705128   0.110703099244775   1.0000000
N2   N   0.814308992496085   0.331758570736708   0.110681782061232   1.0000000
N2   N   0.814223822689698   0.473510035582844   0.110706371100750   1.0000000
N2   N   0.813412899779723   0.615304566201773   0.110744156279916   1.0000000
N2   N   0.807863082842193   0.757305276235681   0.110726994791873   1.0000000


