data_1
_audit_creation_method   'vasp2cif'
_cell_length_a    17.52789999999977
_cell_length_b    17.52789999999977
_cell_length_c    15.0
_cell_angle_alpha    90.0
_cell_angle_beta    90.0
_cell_angle_gamma    119.99999999999916

_symmetry_space_group_name_H-M    'P 1'
loop_
_atom_site_label
_atom_site_type_symbol
_atom_site_fract_x
_atom_site_fract_y
_atom_site_fract_z
_atom_site_occupancy
B2   B   0.904234443971599   0.951486749550041   0.111015626770601   1.0000000
B2   B   0.904231589270583   0.094280766563639   0.111113803806957   1.0000000
B2   B   0.904233885921769   0.237044509888235   0.110624313800245   1.0000000
B2   B   0.904331454294452   0.379858847926644   0.110216845888722   1.0000000
B2   B   0.904322640319556   0.522693298200709   0.110460030860559   1.0000000
B2   B   0.903563130424662   0.665426197571584   0.110703250760761   1.0000000
B2   B   0.903521478324235   0.808067682557290   0.110722686797535   1.0000000
B2   B   0.046961255359495   0.951502280531903   0.110642478584375   1.0000000
B2   B   0.047013009480648   0.094341948936363   0.110846255286390   1.0000000
B2   B   0.047010215199201   0.237125143089235   0.110709417035688   1.0000000
B2   B   0.047055367689716   0.379851726551773   0.110166886834598   1.0000000
B2   B   0.047129461438859   0.522712269355086   0.109998962709194   1.0000000
B2   B   0.047069503344978   0.665590629092844   0.110409293580385   1.0000000
B2   B   0.046845550692936   0.808491930165458   0.110558746732959   1.0000000
B2   B   0.189911189004291   0.951610692707977   0.110798912610232   1.0000000
B2   B   0.190366325779483   0.095032919174209   0.111337969881811   1.0000000
B2   B   0.189856158404489   0.237556942643542   0.111499113334064   1.0000000
B2   B   0.190013746353143   0.379952034883420   0.110758167122859   1.0000000
B2   B   0.189972282303528   0.522300837181666   0.109481377857457   1.0000000
B2   B   0.190459404104198   0.665421358053116   0.109832344188096   1.0000000
B2   B   0.189943961828188   0.808491567241629   0.110508572918026   1.0000000
B2   B   0.332755461484128   0.951444603887826   0.110924164216646   1.0000000
B2   B   0.332932963716799   0.094603299163219   0.111437404923383   1.0000000
B2   B   0.333973949712282   0.238917682271657   0.112782964091971   1.0000000
B2   B   0.333751351776955   0.384010024099854   0.115369214163166   1.0000000
B2   B   0.333877634036316   0.519703890582608   0.113325536686759   1.0000000
B2   B   0.334053176479858   0.665042015242759   0.109560295223557   1.0000000
B2   B   0.332898277861814   0.808376818570379   0.110156438446219   1.0000000
B2   B   0.475576631826171   0.951537698439053   0.111088635382693   1.0000000
B2   B   0.475664707028425   0.094121410259795   0.111146748104298   1.0000000
B2   B   0.475744549525007   0.236640779256885   0.111984171426894   1.0000000
B2   B   0.476695195687444   0.380196015141106   0.113091023108927   1.0000000
B2   B   0.476790669645715   0.666505619320997   0.109613834710373   1.0000000
B2   B   0.475675519862083   0.809072781798550   0.110445725967310   1.0000000
B2   B   0.618490806551856   0.951723697755823   0.111567495924325   1.0000000
B2   B   0.618522332017678   0.094217360026954   0.111108881131397   1.0000000
B2   B   0.618630357935993   0.236755266072907   0.110909981684584   1.0000000
B2   B   0.618687952403758   0.379226785961376   0.111632932643676   1.0000000
B2   B   0.616964419426559   0.520069234201886   0.111478138236211   1.0000000
B2   B   0.616985557608593   0.666846546817551   0.110048583929255   1.0000000
B2   B   0.618689384040153   0.809398966667751   0.111100358190259   1.0000000
B2   B   0.761481035470128   0.951668090434995   0.111663037401792   1.0000000
B2   B   0.761403791976039   0.094281467436170   0.111342319069961   1.0000000
B2   B   0.761478085369465   0.236957112330866   0.110529888594276   1.0000000
B2   B   0.761569212751648   0.379674194565660   0.110598062564071   1.0000000
B2   B   0.761544056388600   0.522453014680622   0.111022262126789   1.0000000
B2   B   0.758983387234060   0.664430062143419   0.110951949552992   1.0000000
B2   B   0.761510370161109   0.808940697307221   0.111330347429692   1.0000000
N2   N   0.951490142604242   0.903469110957073   0.110671952792544   1.0000000
N2   N   0.951610824123795   0.046443149805934   0.110910745868419   1.0000000
N2   N   0.951406287220782   0.189188471104088   0.110785189523910   1.0000000
N2   N   0.951448990825831   0.332095842573345   0.110275764493867   1.0000000
N2   N   0.951705029208897   0.475111705233632   0.110176156565935   1.0000000
N2   N   0.951570738037001   0.618018383561075   0.110545169137052   1.0000000
N2   N   0.951445930971814   0.760717463214636   0.110584437832634   1.0000000
N2   N   0.094487747333899   0.903704172384263   0.110557630765128   1.0000000
N2   N   0.094596256097652   0.046535168067703   0.110813525293737   1.0000000
N2   N   0.093919354337850   0.188843997357089   0.110859609333773   1.0000000
N2   N   0.093710217354831   0.331815210930051   0.110438953424021   1.0000000
N2   N   0.094021949770876   0.475074650988690   0.109757068625478   1.0000000
N2   N   0.094682884500837   0.618144646204656   0.110067713884843   1.0000000
N2   N   0.094524102067082   0.760942950592266   0.110528930848453   1.0000000
N2   N   0.237433438448627   0.903807903041143   0.110750284442207   1.0000000
N2   N   0.237548927420247   0.046621631960747   0.111139152927069   1.0000000
N2   N   0.237839664721928   0.189622172773495   0.112041683189528   1.0000000
N2   N   0.235883728359628   0.330956099505776   0.111776725157425   1.0000000
N2   N   0.235973619324406   0.474863280657415   0.109915911493877   1.0000000
N2   N   0.237937464922151   0.618244343208517   0.109364349592689   1.0000000
N2   N   0.237538192992428   0.761037732306418   0.110151834507892   1.0000000
N2   N   0.380373482296022   0.903911472121246   0.110785270331588   1.0000000
N2   N   0.380445413309145   0.046591688589038   0.111127457810372   1.0000000
N2   N   0.380691928479010   0.189401515733922   0.112067804635256   1.0000000
N2   N   0.381814094003406   0.333197958812441   0.114086656247592   1.0000000
N2   N   0.377390837386967   0.473683026648747   0.119285574021113   1.0000000
N2   N   0.381920430163186   0.618569741552618   0.110228861160643   1.0000000
N2   N   0.380655675141856   0.761288244677186   0.109585361523887   1.0000000
N2   N   0.523433223635447   0.904482777645842   0.111194959963688   1.0000000
N2   N   0.523362114777605   0.046683115205195   0.111119449614267   1.0000000
N2   N   0.523550827870845   0.189021401622074   0.111235297782209   1.0000000
N2   N   0.523872453802007   0.331270469657265   0.112381315241909   1.0000000
N2   N   0.523869237061297   0.762585518803839   0.110380967495862   1.0000000
N2   N   0.666484408538066   0.904624415082498   0.111674593018496   1.0000000
N2   N   0.666239100986735   0.046872552203908   0.111510915039782   1.0000000
N2   N   0.666312470251723   0.189290641215301   0.110645106931516   1.0000000
N2   N   0.666557823466934   0.331826823259784   0.110956876306183   1.0000000
N2   N   0.667046618054908   0.474607898781751   0.111471357646308   1.0000000
N2   N   0.663192020186263   0.616562030585452   0.110830192001048   1.0000000
N2   N   0.667043990508555   0.762370450623144   0.111243808793822   1.0000000
N2   N   0.809197499316401   0.904130889198337   0.111440385173196   1.0000000
N2   N   0.808989890679397   0.046744871457079   0.111523576095808   1.0000000
N2   N   0.808915673481777   0.189352546171764   0.110763685791791   1.0000000
N2   N   0.809074239259142   0.332096685880589   0.110266501028601   1.0000000
N2   N   0.809265010348565   0.474953599845058   0.110663468494972   1.0000000
N2   N   0.808180536064372   0.617775053865089   0.110890237531241   1.0000000
N2   N   0.808162172765320   0.760276389924853   0.110938580451755   1.0000000
O2   O   0.528066421322303   0.627486933922708   0.107875970300122   1.0000000
O2   O   0.528013391826837   0.470463310365799   0.112041681251437   1.0000000


