data_1
_audit_creation_method   'vasp2cif'
_cell_length_a    17.52789999999977
_cell_length_b    17.52789999999977
_cell_length_c    15.0
_cell_angle_alpha    90.0
_cell_angle_beta    90.0
_cell_angle_gamma    119.99999999999916

_symmetry_space_group_name_H-M    'P 1'
loop_
_atom_site_label
_atom_site_type_symbol
_atom_site_fract_x
_atom_site_fract_y
_atom_site_fract_z
_atom_site_occupancy
B2   B   0.904808015493670   0.953438467662544   0.110961987698356   1.0000000
B2   B   0.906324456266106   0.097455625963315   0.111005834006542   1.0000000
B2   B   0.906286966121380   0.240227169447816   0.111087708227577   1.0000000
B2   B   0.905403448215242   0.382392956071510   0.111056227560753   1.0000000
B2   B   0.903765623175393   0.524283201822230   0.110994512905601   1.0000000
B2   B   0.901163859229080   0.666198718650812   0.111019041044126   1.0000000
B2   B   0.902644923162053   0.809186769803165   0.111034446995686   1.0000000
B2   B   0.046440032192229   0.951247025302070   0.110962329164541   1.0000000
B2   B   0.047832398237007   0.095240150310832   0.110967181367087   1.0000000
B2   B   0.049337119622738   0.239509027333848   0.111035722254971   1.0000000
B2   B   0.049597941076399   0.382486109787980   0.111042945188698   1.0000000
B2   B   0.048557187791164   0.524429543962051   0.111020475261597   1.0000000
B2   B   0.046581078517184   0.666000553490512   0.110979503480729   1.0000000
B2   B   0.045707573203993   0.807992817070650   0.110974721398805   1.0000000
B2   B   0.188791333552119   0.949827183886537   0.111048592912517   1.0000000
B2   B   0.189485471415379   0.093130226560542   0.111060026659208   1.0000000
B2   B   0.190681732966667   0.236930443178670   0.111005943509701   1.0000000
B2   B   0.193313859885954   0.382022916269675   0.110960854580380   1.0000000
B2   B   0.193463504232378   0.524802829738922   0.110987117283979   1.0000000
B2   B   0.192058018611184   0.666265211124516   0.111014997486042   1.0000000
B2   B   0.189655189717357   0.807886850595127   0.110983810026956   1.0000000
B2   B   0.332422366188842   0.950250100907356   0.111026540341711   1.0000000
B2   B   0.331176843569251   0.091144839471074   0.111123463747091   1.0000000
B2   B   0.332309335086555   0.233639859796509   0.111164805576515   1.0000000
B2   B   0.333987620824211   0.377573351604901   0.111084448243361   1.0000000
B2   B   0.338350656904684   0.526600898645306   0.110942829868825   1.0000000
B2   B   0.338502079336639   0.667393788118344   0.111035071316608   1.0000000
B2   B   0.333779121286893   0.808779351287187   0.111027917640598   1.0000000
B2   B   0.476351905273232   0.952639463527947   0.110948821050691   1.0000000
B2   B   0.475237986228460   0.093669920702510   0.111034206737255   1.0000000
B2   B   0.472953304317786   0.233145931194655   0.111184792489225   1.0000000
B2   B   0.488616419315165   0.671892915468214   0.111058704717008   1.0000000
B2   B   0.477565371713800   0.811390233097308   0.111038287320797   1.0000000
B2   B   0.620199116345766   0.955716596337194   0.110907576400824   1.0000000
B2   B   0.619358383206435   0.096509035469627   0.110922224613900   1.0000000
B2   B   0.618379695683485   0.237521421395584   0.111040783386121   1.0000000
B2   B   0.616339691677399   0.378742997082528   0.111124982768130   1.0000000
B2   B   0.607249681005107   0.672185317635869   0.111058921037307   1.0000000
B2   B   0.621495161822139   0.816231043992173   0.111011577250919   1.0000000
B2   B   0.763746594862041   0.955968819767058   0.110935946372545   1.0000000
B2   B   0.763278872796516   0.097914207476473   0.110946590870653   1.0000000
B2   B   0.762535339669439   0.239809495144161   0.111034439673382   1.0000000
B2   B   0.761037987086862   0.381671643530104   0.111048326203067   1.0000000
B2   B   0.759326453674001   0.524874785194800   0.111007446849125   1.0000000
B2   B   0.755378687723122   0.666772928572015   0.111069278388771   1.0000000
B2   B   0.761045057532376   0.811787967295541   0.111054302540447   1.0000000
C2   C   0.475236651538748   0.374514042119025   0.111341350027577   1.0000000
C2   C   0.469003499241096   0.501030080045038   0.110953236684131   1.0000000
C2   C   0.518055950297970   0.467269092493365   0.111329270176924   1.0000000
N2   N   0.951253748030972   0.904591855545288   0.110955115781328   1.0000000
N2   N   0.953070807603240   0.048834631816163   0.110951787115295   1.0000000
N2   N   0.954335672456971   0.192745333674052   0.111047325439821   1.0000000
N2   N   0.954141600380327   0.335383229769810   0.111068999115716   1.0000000
N2   N   0.952779709283328   0.477391299786467   0.111001685913450   1.0000000
N2   N   0.950429546284116   0.619200524039988   0.110967254818887   1.0000000
N2   N   0.950004479945934   0.761222779757062   0.110996690513499   1.0000000
N2   N   0.093750831725921   0.903243969630212   0.110970858586319   1.0000000
N2   N   0.094828870417930   0.046905982201490   0.110952354254589   1.0000000
N2   N   0.096362472484159   0.190942753133560   0.110974516520145   1.0000000
N2   N   0.098268457481133   0.335125962765428   0.110992163245715   1.0000000
N2   N   0.097905869176142   0.477589082149269   0.110999058548080   1.0000000
N2   N   0.096139860405564   0.619268325684903   0.110987858996647   1.0000000
N2   N   0.094210738977989   0.760936896769352   0.110945245517548   1.0000000
N2   N   0.237217587514899   0.903024761968830   0.111006127005573   1.0000000
N2   N   0.236665145868634   0.045282752479520   0.111092369587599   1.0000000
N2   N   0.238343969704628   0.189335387328836   0.111048224004140   1.0000000
N2   N   0.240447127707292   0.332838896261954   0.110983203432155   1.0000000
N2   N   0.243237106171446   0.477817717121624   0.110930452355675   1.0000000
N2   N   0.242274782785159   0.619593796089364   0.110999950198657   1.0000000
N2   N   0.238604225587186   0.761120834686367   0.110995966565550   1.0000000
N2   N   0.381034356428149   0.903865187894210   0.110978330925829   1.0000000
N2   N   0.379997545485092   0.045549123669217   0.111052367852666   1.0000000
N2   N   0.379058689607055   0.186762421915388   0.111152009494493   1.0000000
N2   N   0.384160534359574   0.331023900988948   0.111241985659954   1.0000000
N2   N   0.383829801638836   0.474596082868201   0.110895090606561   1.0000000
N2   N   0.390932359161816   0.620955962378063   0.111004617115292   1.0000000
N2   N   0.382832690843052   0.761995871765626   0.111040385884868   1.0000000
N2   N   0.524825929721665   0.906297850006303   0.110932396948563   1.0000000
N2   N   0.523844020035246   0.047803882820899   0.110922408230373   1.0000000
N2   N   0.522619685567822   0.189223551778798   0.111063164521393   1.0000000
N2   N   0.518803560181388   0.329611085809395   0.111272600594808   1.0000000
N2   N   0.526577723962065   0.765197320224163   0.111042431652841   1.0000000
N2   N   0.668689367692910   0.909681870550157   0.110915403912844   1.0000000
N2   N   0.667790577768069   0.050304387661814   0.110875901132565   1.0000000
N2   N   0.666816653122236   0.191519756917747   0.110965891497582   1.0000000
N2   N   0.664837686711225   0.332291704266584   0.111059250274529   1.0000000
N2   N   0.665884992890973   0.469817393720954   0.110886280913289   1.0000000
N2   N   0.660034916682750   0.632195131333188   0.111007409788814   1.0000000
N2   N   0.665774221247426   0.766828286438280   0.111030549412115   1.0000000
N2   N   0.809786343768751   0.906995837984159   0.110963807775421   1.0000000
N2   N   0.811289689149538   0.050744744794031   0.110930342106334   1.0000000
N2   N   0.810865144289900   0.192927948207200   0.111020804433734   1.0000000
N2   N   0.809678257346647   0.334871051817097   0.111041524194862   1.0000000
N2   N   0.807789327224995   0.476748578526060   0.110991770469911   1.0000000
N2   N   0.804269162357057   0.619398141310541   0.111029907294087   1.0000000
N2   N   0.806670540627081   0.762547499053220   0.111064873884582   1.0000000


