data_1
_audit_creation_method   'vasp2cif'
_cell_length_a    17.52789999999977
_cell_length_b    17.52789999999977
_cell_length_c    15.0
_cell_angle_alpha    90.0
_cell_angle_beta    90.0
_cell_angle_gamma    119.99999999999916

_symmetry_space_group_name_H-M    'P 1'
loop_
_atom_site_label
_atom_site_type_symbol
_atom_site_fract_x
_atom_site_fract_y
_atom_site_fract_z
_atom_site_occupancy
S2   S   0.502690301360267   0.497311100556728   0.111514439243408   1.0000000
B2   B   0.905652452074516   0.953152025942932   0.111007183366372   1.0000000
B2   B   0.904403510523665   0.095598510672331   0.111046233924238   1.0000000
B2   B   0.903968056774390   0.238479054478289   0.111053874105447   1.0000000
B2   B   0.903927857909858   0.381296602200742   0.110993924524313   1.0000000
B2   B   0.904600812751464   0.524057454655282   0.111006204897705   1.0000000
B2   B   0.906610567001652   0.667280316065374   0.111083132019984   1.0000000
B2   B   0.907407091352462   0.811124006141457   0.111052229542589   1.0000000
B2   B   0.048188053638445   0.951813967557558   0.111009688952628   1.0000000
B2   B   0.046849995253072   0.094349569121479   0.111007183366372   1.0000000
B2   B   0.046622577404088   0.237583447072595   0.111002481777565   1.0000000
B2   B   0.047167913879886   0.380573585325634   0.111008555347935   1.0000000
B2   B   0.048344784264368   0.523220091899499   0.110998951260514   1.0000000
B2   B   0.048980773666311   0.666052277307111   0.111053574775652   1.0000000
B2   B   0.049052798465872   0.809086977903836   0.111059962296830   1.0000000
B2   B   0.190915043292166   0.950949222730133   0.111059962296830   1.0000000
B2   B   0.188878015054546   0.092594929843534   0.111052229542589   1.0000000
B2   B   0.188060974297940   0.235512179965279   0.111000090868908   1.0000000
B2   B   0.189595685695764   0.379458900569966   0.110992623068888   1.0000000
B2   B   0.192403021077357   0.522326668206980   0.111004865293080   1.0000000
B2   B   0.192172707507217   0.665223988047075   0.111023706070990   1.0000000
B2   B   0.191770561866149   0.808231459329855   0.111019545229453   1.0000000
B2   B   0.333949743889885   0.951021247529692   0.111053574775652   1.0000000
B2   B   0.332721705131624   0.093391454194344   0.111083132019984   1.0000000
B2   B   0.328853848945863   0.232740999380094   0.110987611756853   1.0000000
B2   B   0.329193431305910   0.376402642728352   0.110958652534757   1.0000000
B2   B   0.337524509044699   0.520958200639710   0.111049584282520   1.0000000
B2   B   0.335726675678659   0.664275345518339   0.111052317150425   1.0000000
B2   B   0.334778033149921   0.807829313688786   0.111023706070990   1.0000000
B2   B   0.476781929297501   0.951657236931635   0.110998951260514   1.0000000
B2   B   0.475944566541715   0.095401208444532   0.111006204897705   1.0000000
B2   B   0.474413679434355   0.238862631516259   0.111035218272229   1.0000000
B2   B   0.465681486538635   0.376633434055375   0.111040396861994   1.0000000
B2   B   0.479043820557289   0.662477512152300   0.111049584282520   1.0000000
B2   B   0.477675352990018   0.807599000118645   0.111004865293080   1.0000000
B2   B   0.619428435870370   0.952834107316117   0.111008555347935   1.0000000
B2   B   0.618705418995262   0.096074163286137   0.110993924524313   1.0000000
B2   B   0.617847201374530   0.239702392906059   0.111040296506019   1.0000000
B2   B   0.616338581863893   0.383663439332110   0.111054100341323   1.0000000
B2   B   0.623368587140628   0.534320534658364   0.111040396861994   1.0000000
B2   B   0.623599378467651   0.670808589891088   0.110958652534757   1.0000000
B2   B   0.620543120626039   0.810406335500239   0.110992623068888   1.0000000
B2   B   0.762418574123408   0.953379443791915   0.111002481777565   1.0000000
B2   B   0.761522966717715   0.096033964421606   0.111053874105447   1.0000000
B2   B   0.760923675556230   0.239078345639774   0.111069307631310   1.0000000
B2   B   0.760299628289944   0.382154819821473   0.111040296506019   1.0000000
B2   B   0.761139389679744   0.525588341762643   0.111035218272229   1.0000000
B2   B   0.767261021815910   0.671148172251134   0.110987611756853   1.0000000
B2   B   0.764489841230725   0.811941046898063   0.111000090868908   1.0000000
N2   N   0.953650682544000   0.905613136190244   0.110996282676123   1.0000000
N2   N   0.952131807677687   0.047869594240319   0.111006515625725   1.0000000
N2   N   0.951514881795127   0.190650294297768   0.111028201425386   1.0000000
N2   N   0.951642789955121   0.333633619757644   0.111000727423940   1.0000000
N2   N   0.952410076169741   0.476396419683458   0.110961616583199   1.0000000
N2   N   0.953525411953474   0.619127712245829   0.111045898469462   1.0000000
N2   N   0.954074593203652   0.762354182108856   0.111063532616766   1.0000000
N2   N   0.095953494727092   0.904047907190907   0.111015572237773   1.0000000
N2   N   0.094388265727754   0.046350719374007   0.110996282676123   1.0000000
N2   N   0.093486832603132   0.189099049620603   0.110985257938751   1.0000000
N2   N   0.094322171022013   0.332656816680166   0.110982512168236   1.0000000
N2   N   0.096292007242281   0.475654340229089   0.110983418792472   1.0000000
N2   N   0.096598904292030   0.618324957003503   0.111017218392444   1.0000000
N2   N   0.096544410864482   0.761173232058153   0.111024706204776   1.0000000
N2   N   0.238828169859853   0.903456991053516   0.111024706204776   1.0000000
N2   N   0.237647219809150   0.045926808714353   0.111063532616766   1.0000000
N2   N   0.234845963223724   0.186884609298908   0.111006991241062   1.0000000
N2   N   0.234831663622211   0.330081805395942   0.110961764217321   1.0000000
N2   N   0.240382871844249   0.474495896625890   0.110994407830460   1.0000000
N2   N   0.240089509183290   0.617528720391380   0.111015307111249   1.0000000
N2   N   0.239499760905355   0.760501641012651   0.111004393101992   1.0000000
N2   N   0.381676444914495   0.903402497625969   0.111017218392444   1.0000000
N2   N   0.380873689672169   0.046475989964531   0.111045898469462   1.0000000
N2   N   0.379362920844785   0.188531470573472   0.111032655479165   1.0000000
N2   N   0.373963305221689   0.326338709249515   0.110902720402535   1.0000000
N2   N   0.381647284427690   0.469279029208208   0.110990603618079   1.0000000
N2   N   0.383719922641046   0.616281479276953   0.111067073872571   1.0000000
N2   N   0.382472681526619   0.759911892734716   0.111015307111249   1.0000000
N2   N   0.524347061687909   0.903709394675718   0.110983418792472   1.0000000
N2   N   0.523604982233538   0.047591325748265   0.110961616583199   1.0000000
N2   N   0.522651400780980   0.191507138821195   0.111007120109889   1.0000000
N2   N   0.520552275232133   0.335887588705048   0.111023928628870   1.0000000
N2   N   0.530722372708790   0.618354117490307   0.110990603618079   1.0000000
N2   N   0.525505505291107   0.759618530073758   0.110994407830460   1.0000000
N2   N   0.667344585236832   0.905679230895986   0.110982512168236   1.0000000
N2   N   0.666367782159352   0.048358611962885   0.111000727423940   1.0000000
N2   N   0.665593498612303   0.191764859546916   0.111012449776291   1.0000000
N2   N   0.664452626005492   0.335548775911504   0.111031431655571   1.0000000
N2   N   0.664113813211949   0.479449126684864   0.111023928628870   1.0000000
N2   N   0.673662692667482   0.626038096696308   0.110902720402535   1.0000000
N2   N   0.669919596521055   0.765169738295795   0.110961764217321   1.0000000
N2   N   0.810902352297395   0.906514569314866   0.110985257938751   1.0000000
N2   N   0.809351107620231   0.048486520122880   0.111028201425386   1.0000000
N2   N   0.808667575369485   0.191333826548515   0.111064346280326   1.0000000
N2   N   0.808236542371082   0.334407903304694   0.111012449776291   1.0000000
N2   N   0.808494263096804   0.477350001136016   0.111007120109889   1.0000000
N2   N   0.811469931344527   0.620638481073214   0.111032655479165   1.0000000
N2   N   0.813116792619090   0.765155438694282   0.111006991241062   1.0000000


