data_1
_audit_creation_method   'vasp2cif'
_cell_length_a    17.52789999999977
_cell_length_b    17.52789999999977
_cell_length_c    15.0
_cell_angle_alpha    90.0
_cell_angle_beta    90.0
_cell_angle_gamma    119.99999999999916

_symmetry_space_group_name_H-M    'P 1'
loop_
_atom_site_label
_atom_site_type_symbol
_atom_site_fract_x
_atom_site_fract_y
_atom_site_fract_z
_atom_site_occupancy
B2   B   0.905653675192053   0.952981990882716   0.111016750118912   1.0000000
B2   B   0.904760601649271   0.095241419546726   0.111017727541748   1.0000000
B2   B   0.904466035914353   0.237947364802679   0.111041877751245   1.0000000
B2   B   0.904760601649271   0.380947875793541   0.111017727541748   1.0000000
B2   B   0.905653675192053   0.524102089557340   0.111016750118912   1.0000000
B2   B   0.905843685350526   0.667194467508748   0.111053456304962   1.0000000
B2   B   0.905843685350526   0.810079623089779   0.111053456304962   1.0000000
B2   B   0.047810210286102   0.952191810909901   0.111020227944578   1.0000000
B2   B   0.047020030313288   0.094348346003943   0.111016750118912   1.0000000
B2   B   0.046540956323548   0.237257356151942   0.111013542757980   1.0000000
B2   B   0.046540956323548   0.380714005418606   0.111013542757980   1.0000000
B2   B   0.047020030313288   0.524102089557340   0.111016750118912   1.0000000
B2   B   0.047810210286102   0.667050516180198   0.111020227944578   1.0000000
B2   B   0.047995108188239   0.809713612496122   0.111002990734305   1.0000000
B2   B   0.190288408699882   0.952006913007765   0.111002990734305   1.0000000
B2   B   0.189922398106224   0.094158335845470   0.111053456304962   1.0000000
B2   B   0.188047216848000   0.235355984655742   0.111034452615396   1.0000000
B2   B   0.187874029998907   0.379652217622953   0.111019064745226   1.0000000
B2   B   0.188047216848000   0.524121637440259   0.111034452615396   1.0000000
B2   B   0.189922398106224   0.667194467508748   0.111053456304962   1.0000000
B2   B   0.190288408699882   0.809713612496122   0.111002990734305   1.0000000
B2   B   0.332951505016799   0.952191810909901   0.111020227944578   1.0000000
B2   B   0.332807553688250   0.094158335845470   0.111053456304962   1.0000000
B2   B   0.332270448595952   0.235969281241905   0.111042231388611   1.0000000
B2   B   0.327685109916738   0.374729337087539   0.111034090733232   1.0000000
B2   B   0.327685109916738   0.524386178076199   0.111034090733232   1.0000000
B2   B   0.332270448595952   0.667731572601047   0.111042231388611   1.0000000
B2   B   0.332807553688250   0.810079623089779   0.111053456304962   1.0000000
B2   B   0.475899931639659   0.952981990882716   0.111016750118912   1.0000000
B2   B   0.475899931639659   0.094348346003943   0.111016750118912   1.0000000
B2   B   0.475880383756739   0.235355984655742   0.111034452615396   1.0000000
B2   B   0.475615843120799   0.374729337087539   0.111034090733232   1.0000000
B2   B   0.475615843120799   0.672316911280261   0.111034090733232   1.0000000
B2   B   0.475880383756739   0.811954804348004   0.111034452615396   1.0000000
B2   B   0.619288015777398   0.953461064872455   0.111013542757980   1.0000000
B2   B   0.619054145402462   0.095241419546726   0.111017727541748   1.0000000
B2   B   0.619288015777398   0.237257356151942   0.111013542757980   1.0000000
B2   B   0.620349803573050   0.379652217622953   0.111019064745226   1.0000000
B2   B   0.625272684108465   0.524386178076199   0.111034090733232   1.0000000
B2   B   0.625272684108465   0.672316911280260   0.111034090733232   1.0000000
B2   B   0.620349803573050   0.812127991197097   0.111019064745226   1.0000000
B2   B   0.762744665044061   0.953461064872455   0.111013542757980   1.0000000
B2   B   0.762054656393325   0.095535985281643   0.111041877751245   1.0000000
B2   B   0.762054656393325   0.237947364802679   0.111041877751245   1.0000000
B2   B   0.762744665044061   0.380714005418606   0.111013542757980   1.0000000
B2   B   0.764646036540262   0.524121637440259   0.111034452615396   1.0000000
B2   B   0.764032739954099   0.667731572601047   0.111042231388611   1.0000000
B2   B   0.764646036540262   0.811954804348004   0.111034452615396   1.0000000
N2   N   0.952773143474420   0.904963976754533   0.111014887047991   1.0000000
N2   N   0.952365353107704   0.047636048810302   0.110985685158780   1.0000000
N2   N   0.951928503364353   0.190240881622202   0.111012530102466   1.0000000
N2   N   0.951928503364353   0.333114603860149   0.111012530102466   1.0000000
N2   N   0.952365353107704   0.476156286415400   0.110985685158780   1.0000000
N2   N   0.952773143474420   0.619237860394883   0.111014887047991   1.0000000
N2   N   0.952873633825887   0.762151163750445   0.111026011692114   1.0000000
N2   N   0.095314184920224   0.904687216997774   0.110981181304216   1.0000000
N2   N   0.095037425163466   0.047228258443585   0.111014887047991   1.0000000
N2   N   0.093901171119248   0.189291993864224   0.111004603139017   1.0000000
N2   N   0.093822029941985   0.332625361807993   0.110996605165237   1.0000000
N2   N   0.093901171119248   0.476037870929025   0.111004603139017   1.0000000
N2   N   0.095037425163466   0.619237860394883   0.111014887047991   1.0000000
N2   N   0.095314184920224   0.762057373153454   0.110981181304216   1.0000000
N2   N   0.237944028764551   0.904687216997774   0.110981181304216   1.0000000
N2   N   0.237850238167561   0.047127768092119   0.111026011692114   1.0000000
N2   N   0.237424914318624   0.189537680919003   0.111034210618559   1.0000000
N2   N   0.234628909520003   0.330499367773191   0.111009804524863   1.0000000
N2   N   0.234628909520003   0.475558235420806   0.111009804524863   1.0000000
N2   N   0.237424914318624   0.619315927074617   0.111034210618559   1.0000000
N2   N   0.237850238167561   0.762151163750445   0.111026011692114   1.0000000
N2   N   0.380763541523115   0.904963976754533   0.111014887047991   1.0000000
N2   N   0.380763541523115   0.047228258443585   0.111014887047991   1.0000000
N2   N   0.380685474843382   0.189537680919003   0.111034210618559   1.0000000
N2   N   0.380409215050977   0.332245721858950   0.111012928558684   1.0000000
N2   N   0.368185998639982   0.469807346156988   0.111018956634627   1.0000000
N2   N   0.380409215050977   0.619592186867022   0.111012928558684   1.0000000
N2   N   0.380685474843382   0.762576487599382   0.111034210618559   1.0000000
N2   N   0.523963530987972   0.906100230798751   0.111004603139017   1.0000000
N2   N   0.523845115501597   0.047636048810302   0.110985685158780   1.0000000
N2   N   0.523963530987972   0.189291993864224   0.111004603139017   1.0000000
N2   N   0.524443166496191   0.330499367773191   0.111009804524863   1.0000000
N2   N   0.530194055760008   0.469807346156988   0.111018956634627   1.0000000
N2   N   0.530194055760008   0.631815403278016   0.111018956634627   1.0000000
N2   N   0.524443166496191   0.765372492398003   0.111009804524863   1.0000000
N2   N   0.667376040109004   0.906179371976014   0.110996605165237   1.0000000
N2   N   0.666886798056848   0.048072898553653   0.111012530102466   1.0000000
N2   N   0.666886798056848   0.190240881622202   0.111012530102466   1.0000000
N2   N   0.667376040109004   0.332625361807993   0.110996605165237   1.0000000
N2   N   0.669502034143805   0.475558235420806   0.111009804524863   1.0000000
N2   N   0.667755680058046   0.619592186867022   0.111012928558684   1.0000000
N2   N   0.669502034143805   0.765372492398003   0.111009804524863   1.0000000
N2   N   0.810709408053775   0.906100230798751   0.111004603139017   1.0000000
N2   N   0.809760520295797   0.048072898553653   0.111012530102466   1.0000000
N2   N   0.809525273905997   0.190476128012001   0.111032432617757   1.0000000
N2   N   0.809760520295797   0.333114603860149   0.111012530102466   1.0000000
N2   N   0.810709408053775   0.476037870929025   0.111004603139017   1.0000000
N2   N   0.810463720998995   0.619315927074617   0.111034210618559   1.0000000
N2   N   0.810463720998995   0.762576487599382   0.111034210618559   1.0000000
S2   S   0.476191212381998   0.523810808815000   0.111061133743845   1.0000000


