data_1
_audit_creation_method   'vasp2cif'
_cell_length_a    17.52789999999977
_cell_length_b    17.52789999999977
_cell_length_c    15.0
_cell_angle_alpha    90.0
_cell_angle_beta    90.0
_cell_angle_gamma    119.99999999999916

_symmetry_space_group_name_H-M    'P 1'
loop_
_atom_site_label
_atom_site_type_symbol
_atom_site_fract_x
_atom_site_fract_y
_atom_site_fract_z
_atom_site_occupancy
Al2   Al   0.429128789380190   0.469398864210837   0.111170848564662   1.0000000
B2   B   0.909306235904422   0.955944216950455   0.110632202768736   1.0000000
B2   B   0.906679971789102   0.097985738689282   0.110791212837059   1.0000000
B2   B   0.905401389494557   0.240488284187159   0.110812145999223   1.0000000
B2   B   0.904197043283441   0.382525754229715   0.110747301454782   1.0000000
B2   B   0.903259761172490   0.524320844388363   0.110736247461537   1.0000000
B2   B   0.907371929621069   0.667302338177883   0.110796536823447   1.0000000
B2   B   0.910809724304362   0.813015896264887   0.110702520886115   1.0000000
B2   B   0.049122221337755   0.950188455037504   0.110596102434747   1.0000000
B2   B   0.047060349587669   0.092770123087260   0.110711841383189   1.0000000
B2   B   0.047653706187633   0.237814311165472   0.110727147179870   1.0000000
B2   B   0.048407268202022   0.381358424746637   0.110682368183866   1.0000000
B2   B   0.048706919289678   0.523249122131817   0.110661337268380   1.0000000
B2   B   0.049605585167131   0.665145511439278   0.110754888944360   1.0000000
B2   B   0.049959747768184   0.807631868777515   0.110677630671740   1.0000000
B2   B   0.190967449496462   0.947440422641771   0.110656299452579   1.0000000
B2   B   0.186947074675859   0.086690969484717   0.110741444048571   1.0000000
B2   B   0.184671830108039   0.228665243810202   0.110823805940437   1.0000000
B2   B   0.190952306555659   0.378741067107379   0.110697723281162   1.0000000
B2   B   0.193914818049645   0.522513406456548   0.110606887520518   1.0000000
B2   B   0.193699989259596   0.664597637709556   0.110667356578561   1.0000000
B2   B   0.192618801727794   0.806315990709404   0.110669047437188   1.0000000
B2   B   0.334684333246756   0.948282852042602   0.110689940384734   1.0000000
B2   B   0.331953595354379   0.087157821618457   0.110703520451807   1.0000000
B2   B   0.324153233481345   0.219359850278162   0.111210749512461   1.0000000
B2   B   0.319629785491185   0.354228107404675   0.111457191174446   1.0000000
B2   B   0.339450021627214   0.524921534774745   0.110786183660425   1.0000000
B2   B   0.338898568464459   0.666265921472676   0.110659039203134   1.0000000
B2   B   0.336576254839234   0.807438639867595   0.110686670393598   1.0000000
B2   B   0.478626570481678   0.952053828839289   0.110743657775784   1.0000000
B2   B   0.476695453189014   0.093684352118514   0.110706063982802   1.0000000
B2   B   0.473414460424003   0.234323953965545   0.110787458989724   1.0000000
B2   B   0.461829012156064   0.368518822181595   0.111448842947605   1.0000000
B2   B   0.486570925678022   0.668164682460641   0.110538486301974   1.0000000
B2   B   0.481142487316021   0.810170018800839   0.110760507085420   1.0000000
B2   B   0.622361640369331   0.956669741927683   0.110783970449159   1.0000000
B2   B   0.620338998286409   0.098207273204338   0.110737623098170   1.0000000
B2   B   0.618079689062998   0.241034009055684   0.110685259591247   1.0000000
B2   B   0.613402015581119   0.385175869307324   0.110708596418608   1.0000000
B2   B   0.619010664173390   0.544502999302825   0.110509969860079   1.0000000
B2   B   0.638412199624934   0.686375922694230   0.110769105655022   1.0000000
B2   B   0.626037871054950   0.817366385399680   0.110820937724185   1.0000000
B2   B   0.766385593411598   0.958116978042446   0.110740612913083   1.0000000
B2   B   0.763756219849986   0.099249921147873   0.110774652627005   1.0000000
B2   B   0.761866355439288   0.241325577485504   0.110776911526940   1.0000000
B2   B   0.759276997657075   0.383705148568100   0.110712614427504   1.0000000
B2   B   0.757097013437296   0.526859018822371   0.110693737493074   1.0000000
B2   B   0.772610953093269   0.676142218955931   0.110874727371814   1.0000000
B2   B   0.772181756502681   0.819559320832592   0.110785605032070   1.0000000
N2   N   0.955850146757170   0.906794741904730   0.110572201328220   1.0000000
N2   N   0.953829317517547   0.049546763355506   0.110686703216845   1.0000000
N2   N   0.953189741609961   0.192690254272859   0.110772515517777   1.0000000
N2   N   0.952935149382541   0.335330622449491   0.110729639848094   1.0000000
N2   N   0.952412830367157   0.477231661217387   0.110674994085164   1.0000000
N2   N   0.954105075355910   0.619063092429878   0.110768520847329   1.0000000
N2   N   0.955550525208750   0.762360704090340   0.110719303027754   1.0000000
N2   N   0.096507007574123   0.902047636379708   0.110576428002609   1.0000000
N2   N   0.093708140770939   0.043707849302194   0.110605465239479   1.0000000
N2   N   0.092031049085721   0.186622270872945   0.110737315450890   1.0000000
N2   N   0.096052984965713   0.333278113349775   0.110623293099431   1.0000000
N2   N   0.097681530676937   0.476222154056593   0.110574401279916   1.0000000
N2   N   0.097901612677734   0.617971267385122   0.110661269559148   1.0000000
N2   N   0.097524237455079   0.759847518114184   0.110674912767735   1.0000000
N2   N   0.239594324332544   0.900906009285758   0.110622372266027   1.0000000
N2   N   0.236996278448518   0.041427404608590   0.110664872684479   1.0000000
N2   N   0.231205629079181   0.179579598178466   0.110898500803830   1.0000000
N2   N   0.230463143486278   0.322949772775694   0.110709364842992   1.0000000
N2   N   0.242963816182742   0.474953205333511   0.110663436273002   1.0000000
N2   N   0.242781674030034   0.617710885005382   0.110587684332355   1.0000000
N2   N   0.241155307303762   0.759465537943526   0.110642828904713   1.0000000
N2   N   0.383431620918576   0.902354712720725   0.110676476905463   1.0000000
N2   N   0.381534463294521   0.042750375014051   0.110652143955661   1.0000000
N2   N   0.378014566519615   0.180575288233175   0.110810813702423   1.0000000
N2   N   0.367938867893424   0.310538089346996   0.111743535668430   1.0000000
N2   N   0.388787692131870   0.619580108565311   0.110631534648859   1.0000000
N2   N   0.385525716200926   0.761146880682450   0.110669511814975   1.0000000
N2   N   0.527237391427562   0.905752377276622   0.110755580722325   1.0000000
N2   N   0.525284473621899   0.047571110030521   0.110703894659587   1.0000000
N2   N   0.522944748048885   0.189207256970834   0.110647628108865   1.0000000
N2   N   0.517534697065742   0.329888755929724   0.110854868334033   1.0000000
N2   N   0.536451513922541   0.548319886269296   0.109933067371155   1.0000000
N2   N   0.547066436633437   0.634026722616496   0.110212316624559   1.0000000
N2   N   0.530770305475318   0.764441162207833   0.110744661721488   1.0000000
N2   N   0.671527251694044   0.911450408703849   0.110749430423266   1.0000000
N2   N   0.668766016156866   0.051612363474472   0.110725938166040   1.0000000
N2   N   0.666661090402661   0.193757355761812   0.110701735052893   1.0000000
N2   N   0.663423355240111   0.337340465735815   0.110653599579774   1.0000000
N2   N   0.658496590614027   0.482738971653266   0.110579635158671   1.0000000
N2   N   0.681413486585060   0.636015683544672   0.110919712454089   1.0000000
N2   N   0.679422803673100   0.777300828757608   0.110909767869038   1.0000000
N2   N   0.816070801596931   0.912523949361826   0.110619423411789   1.0000000
N2   N   0.812184944735424   0.052398789745811   0.110744093974375   1.0000000
N2   N   0.810327860231068   0.194107685075069   0.110779437651072   1.0000000
N2   N   0.808447366033973   0.336376522858326   0.110741884785248   1.0000000
N2   N   0.806431116340828   0.478748755118766   0.110692935144474   1.0000000
N2   N   0.812642145949231   0.622183368563037   0.110759780240421   1.0000000
N2   N   0.817988555578531   0.770021800604453   0.110753165508595   1.0000000


