data_1
_audit_creation_method   'vasp2cif'
_cell_length_a    14.93631414619966
_cell_length_b    14.936314146199727
_cell_length_c    13.341276283792837
_cell_angle_alpha    90.0
_cell_angle_beta    90.0
_cell_angle_gamma    119.99999999999984

_symmetry_space_group_name_H-M    'P 1'
loop_
_atom_site_label
_atom_site_type_symbol
_atom_site_fract_x
_atom_site_fract_y
_atom_site_fract_z
_atom_site_occupancy
Ga2   Ga   0.555555555555557   0.444444444444443   0.375000000000000   1.0000000
N2   N   0.111106459346349   0.055546387749554   0.125133671584664   1.0000000
N2   N   0.611142806604915   0.555618946543159   0.124358580786712   1.0000000
N2   N   0.444439264552155   0.055548582466483   0.125209230506950   1.0000000
N2   N   0.944451417533517   0.555560735447845   0.125209230506950   1.0000000
N2   N   0.777777095757905   0.055555214545620   0.125080716577241   1.0000000
N2   N   0.111115070148621   0.722224201740975   0.624878290615059   1.0000000
N2   N   0.444439264552155   0.722224015419008   0.624790769493050   1.0000000
N2   N   0.277760580369268   0.222209741766299   0.624781003684918   1.0000000
N2   N   0.777790258233701   0.722239419630732   0.624781003684918   1.0000000
N2   N   0.611115828063702   0.222209741766299   0.624781003684918   1.0000000
N2   N   0.944444785454380   0.222222904242095   0.624919283422759   1.0000000
N2   N   0.277775798259025   0.722224201740975   0.125121709384941   1.0000000
N2   N   0.111097516271622   0.222215424802475   0.125108389526211   1.0000000
N2   N   0.444445540936421   0.222224415206177   0.125305585684115   1.0000000
N2   N   0.611115828063702   0.722239419630732   0.125218996315083   1.0000000
N2   N   0.944451417533517   0.722224015419008   0.125209230506950   1.0000000
N2   N   0.777784575197524   0.222215424802475   0.125108389526211   1.0000000
N2   N   0.111114387579129   0.888885612420871   0.624879184195001   1.0000000
N2   N   0.444437891508413   0.888885612420871   0.624879184195001   1.0000000
N2   N   0.277760580369268   0.388884171936298   0.624781003684918   1.0000000
N2   N   0.611142806604915   0.388857193395085   0.625641419213288   1.0000000
N2   N   0.777784575197524   0.888902483728378   0.624891610473790   1.0000000
N2   N   0.944453612250446   0.388893404930124   0.624866328415336   1.0000000
N2   N   0.111106459346349   0.388893404930124   0.125133671584664   1.0000000
N2   N   0.277775798259025   0.888884929851379   0.125121709384941   1.0000000
N2   N   0.611106595069876   0.888893540653651   0.125133671584664   1.0000000
N2   N   0.444381053456840   0.388857193395085   0.124358580786712   1.0000000
N2   N   0.944453612250446   0.888893540653651   0.125133671584664   1.0000000
N2   N   0.777790258233701   0.388884171936298   0.125218996315083   1.0000000
N2   N   0.277775984580992   0.555560735447845   0.624790769493050   1.0000000
N2   N   0.111106459346349   0.055546387749554   0.624866328415336   1.0000000
N2   N   0.611142806604915   0.555618946543159   0.625641419213288   1.0000000
N2   N   0.444439264552155   0.055548582466483   0.624790769493050   1.0000000
N2   N   0.944451417533517   0.555560735447845   0.624790769493050   1.0000000
N2   N   0.111114387579129   0.555562108491587   0.125120815804999   1.0000000
N2   N   0.777777095757905   0.055555214545620   0.624919283422759   1.0000000
N2   N   0.277775984580992   0.055548582466483   0.125209230506950   1.0000000
N2   N   0.444445540936421   0.555554459063579   0.125305585684115   1.0000000
N2   N   0.777775584793823   0.555554459063579   0.125305585684115   1.0000000
N2   N   0.611106595069876   0.055546387749554   0.125133671584664   1.0000000
N2   N   0.444445540936421   0.555554459063579   0.624694414315885   1.0000000
N2   N   0.944444785454380   0.055555214545620   0.125080716577241   1.0000000
N2   N   0.277775798259025   0.722224201740975   0.624878290615059   1.0000000
N2   N   0.111097516271622   0.222215424802475   0.624891610473790   1.0000000
N2   N   0.444445540936421   0.222224415206177   0.624694414315885   1.0000000
N2   N   0.611115828063702   0.722239419630732   0.624781003684918   1.0000000
N2   N   0.944451417533517   0.722224015419008   0.624790769493050   1.0000000
N2   N   0.777784575197524   0.222215424802475   0.624891610473790   1.0000000
N2   N   0.111115070148621   0.722224201740975   0.125121709384941   1.0000000
N2   N   0.444439264552155   0.722224015419008   0.125209230506950   1.0000000
N2   N   0.277760580369268   0.222209741766299   0.125218996315083   1.0000000
N2   N   0.777790258233701   0.722239419630732   0.125218996315083   1.0000000
N2   N   0.611115828063702   0.222209741766299   0.125218996315083   1.0000000
N2   N   0.944444785454380   0.222222904242095   0.125080716577241   1.0000000
N2   N   0.111106459346349   0.388893404930124   0.624866328415336   1.0000000
N2   N   0.277775798259025   0.888884929851379   0.624878290615059   1.0000000
N2   N   0.611106595069876   0.888893540653651   0.624866328415336   1.0000000
N2   N   0.444381053456840   0.388857193395085   0.625641419213288   1.0000000
N2   N   0.944453612250446   0.888893540653651   0.624866328415336   1.0000000
N2   N   0.111114387579129   0.888885612420871   0.125120815804999   1.0000000
N2   N   0.777790258233701   0.388884171936298   0.624781003684918   1.0000000
N2   N   0.444437891508413   0.888885612420871   0.125120815804999   1.0000000
N2   N   0.277760580369268   0.388884171936298   0.125218996315083   1.0000000
N2   N   0.277775984580992   0.555560735447845   0.125209230506950   1.0000000
N2   N   0.611142806604915   0.388857193395085   0.124358580786712   1.0000000
N2   N   0.777784575197524   0.888902483728378   0.125108389526211   1.0000000
N2   N   0.944453612250446   0.388893404930124   0.125133671584664   1.0000000
N2   N   0.111114387579129   0.555562108491587   0.624879184195001   1.0000000
N2   N   0.277775984580992   0.055548582466483   0.624790769493050   1.0000000
N2   N   0.777775584793823   0.555554459063579   0.624694414315885   1.0000000
N2   N   0.611106595069876   0.055546387749554   0.624866328415336   1.0000000
N2   N   0.944444785454380   0.055555214545620   0.624919283422759   1.0000000
N2   N   0.054546132417029   0.110464598986472   0.375000000000000   1.0000000
N2   N   0.554862376630633   0.619473988426209   0.375000000000000   1.0000000
N2   N   0.387558854992769   0.108451043318881   0.375000000000000   1.0000000
N2   N   0.891548956681118   0.612441145007231   0.375000000000000   1.0000000
N2   N   0.722585133236107   0.110464598986472   0.375000000000000   1.0000000
N2   N   0.055552318987626   0.777778477937027   0.875000000000000   1.0000000
N2   N   0.388892825616065   0.777778477937027   0.875000000000000   1.0000000
N2   N   0.222222662813749   0.277777998073542   0.875000000000000   1.0000000
N2   N   0.722222001926458   0.777777337186251   0.875000000000000   1.0000000
N2   N   0.555553827693085   0.277776758896505   0.875000000000000   1.0000000
N2   N   0.888889290130370   0.277777366889843   0.875000000000000   1.0000000
N2   N   0.222222222222221   0.777777777777779   0.375000000000000   1.0000000
N2   N   0.054546132417029   0.277414866763893   0.375000000000000   1.0000000
N2   N   0.380526011573791   0.268721721537759   0.375000000000000   1.0000000
N2   N   0.555111074998690   0.781246381066344   0.375000000000000   1.0000000
N2   N   0.892801972734318   0.781246381066344   0.375000000000000   1.0000000
N2   N   0.723790852602708   0.276209147397292   0.375000000000000   1.0000000
N2   N   0.055554083862357   0.944445916137643   0.875000000000000   1.0000000
N2   N   0.388892825616065   0.944447681012374   0.875000000000000   1.0000000
N2   N   0.222221585182466   0.444442063408276   0.875000000000000   1.0000000
N2   N   0.555555555555557   0.444444444444443   0.875000000000000   1.0000000
N2   N   0.722222633110158   0.944445256573862   0.875000000000000   1.0000000
N2   N   0.888887144892473   0.444442063408276   0.875000000000000   1.0000000
N2   N   0.055721421177873   0.444776175689075   0.375000000000000   1.0000000
N2   N   0.221805792756020   0.943423198166900   0.375000000000000   1.0000000
N2   N   0.555223824310925   0.944278578822127   0.375000000000000   1.0000000
N2   N   0.380526011573791   0.445137623369367   0.375000000000000   1.0000000
N2   N   0.889535401013528   0.945453867582971   0.375000000000000   1.0000000
N2   N   0.731278278462240   0.445137623369367   0.375000000000000   1.0000000
N2   N   0.222221522062973   0.611107174383934   0.875000000000000   1.0000000
N2   N   0.055554743426137   0.111110709869630   0.875000000000000   1.0000000
N2   N   0.555553827693085   0.611110402129916   0.875000000000000   1.0000000
N2   N   0.388890543426900   0.111114420187143   0.875000000000000   1.0000000
N2   N   0.888885579812857   0.611109456573100   0.875000000000000   1.0000000
N2   N   0.056576801833100   0.611715927922455   0.375000000000000   1.0000000
N2   N   0.722222633110158   0.111110709869630   0.875000000000000   1.0000000
N2   N   0.218753618933656   0.107198027265682   0.375000000000000   1.0000000
N2   N   0.387558854992769   0.612441145007231   0.375000000000000   1.0000000
N2   N   0.731278278462240   0.619473988426209   0.375000000000000   1.0000000
N2   N   0.555111074998690   0.107198027265682   0.375000000000000   1.0000000
N2   N   0.388890543426900   0.611109456573100   0.875000000000000   1.0000000
N2   N   0.888888888888886   0.111111111111114   0.375000000000000   1.0000000
N2   N   0.222222222222221   0.777777777777779   0.875000000000000   1.0000000
N2   N   0.055554743426137   0.277777366889843   0.875000000000000   1.0000000
N2   N   0.388889597870084   0.277776758896505   0.875000000000000   1.0000000
N2   N   0.555557936591724   0.777778414817534   0.875000000000000   1.0000000
N2   N   0.888887144892473   0.777778414817534   0.875000000000000   1.0000000
N2   N   0.722222001926458   0.277777998073542   0.875000000000000   1.0000000
N2   N   0.056576801833100   0.778194207243980   0.375000000000000   1.0000000
N2   N   0.388284072077544   0.778194207243980   0.375000000000000   1.0000000
N2   N   0.219084961461248   0.276209147397292   0.375000000000000   1.0000000
N2   N   0.723790852602708   0.780915038538752   0.375000000000000   1.0000000
N2   N   0.554862376630633   0.268721721537759   0.375000000000000   1.0000000
N2   N   0.889535401013528   0.277414866763893   0.375000000000000   1.0000000
N2   N   0.055554083862357   0.444441501058042   0.875000000000000   1.0000000
N2   N   0.222221522062973   0.944447681012374   0.875000000000000   1.0000000
N2   N   0.555558498941957   0.944445916137643   0.875000000000000   1.0000000
N2   N   0.388889597870084   0.444446172306915   0.875000000000000   1.0000000
N2   N   0.888889290130370   0.944445256573862   0.875000000000000   1.0000000
N2   N   0.055721421177873   0.944278578822127   0.375000000000000   1.0000000
N2   N   0.722223241103495   0.444446172306915   0.875000000000000   1.0000000
N2   N   0.388284072077544   0.943423198166900   0.375000000000000   1.0000000
N2   N   0.218753618933656   0.444888925001310   0.375000000000000   1.0000000
N2   N   0.221805792756020   0.611715927922455   0.375000000000000   1.0000000
N2   N   0.722585133236107   0.945453867582971   0.375000000000000   1.0000000
N2   N   0.892801972734318   0.444888925001310   0.375000000000000   1.0000000
N2   N   0.055552318987626   0.611107174383934   0.875000000000000   1.0000000
N2   N   0.222221585182466   0.111112855107526   0.875000000000000   1.0000000
N2   N   0.722223241103495   0.611110402129916   0.875000000000000   1.0000000
N2   N   0.555557936591724   0.111112855107526   0.875000000000000   1.0000000
N2   N   0.888888888888886   0.111111111111114   0.875000000000000   1.0000000
B2   B   0.108815455435697   0.053884932957376   0.375000000000000   1.0000000
B2   B   0.626623717337497   0.586580768008322   0.375000000000000   1.0000000
B2   B   0.443882629013075   0.053363812755053   0.375000000000000   1.0000000
B2   B   0.946636187244947   0.556117370986925   0.375000000000000   1.0000000
B2   B   0.778355492439259   0.055844412886297   0.375000000000000   1.0000000
B2   B   0.111115319621369   0.722224326477349   0.875000000000000   1.0000000
B2   B   0.444444284711290   0.722236492961298   0.875000000000000   1.0000000
B2   B   0.277753299140023   0.222205816053878   0.875000000000000   1.0000000
B2   B   0.777794183946122   0.722246700859977   0.875000000000000   1.0000000
B2   B   0.611119183580526   0.222205816053878   0.875000000000000   1.0000000
B2   B   0.944439971471426   0.222213276276188   0.875000000000000   1.0000000
B2   B   0.277455034130287   0.722544965869713   0.375000000000000   1.0000000
B2   B   0.108511830640765   0.220922581987047   0.375000000000000   1.0000000
B2   B   0.442170862980649   0.217675059294634   0.375000000000000   1.0000000
B2   B   0.612455816037359   0.730057453168620   0.375000000000000   1.0000000
B2   B   0.946636187244947   0.723852149591358   0.375000000000000   1.0000000
B2   B   0.779077418012953   0.220922581987047   0.375000000000000   1.0000000
B2   B   0.111108627829820   0.888891372170180   0.875000000000000   1.0000000
B2   B   0.444449411007031   0.888891372170180   0.875000000000000   1.0000000
B2   B   0.277753299140023   0.388880816419474   0.875000000000000   1.0000000
B2   B   0.611114736665189   0.388885263334811   0.875000000000000   1.0000000
B2   B   0.777789833328255   0.888912999989838   0.875000000000000   1.0000000
B2   B   0.944450603718377   0.388877553608247   0.875000000000000   1.0000000
B2   B   0.108815455435697   0.388263855811649   0.375000000000000   1.0000000
B2   B   0.277455034130287   0.888243401593902   0.375000000000000   1.0000000
B2   B   0.611736144188351   0.891184544564303   0.375000000000000   1.0000000
B2   B   0.413419231991678   0.373376282662503   0.375000000000000   1.0000000
B2   B   0.946115067042624   0.891184544564303   0.375000000000000   1.0000000
B2   B   0.784268303797933   0.387544183962641   0.375000000000000   1.0000000
B2   B   0.277763507038702   0.555555715288710   0.875000000000000   1.0000000
B2   B   0.111093616556541   0.055549396281622   0.875000000000000   1.0000000
B2   B   0.611114736665189   0.555562806663707   0.875000000000000   1.0000000
B2   B   0.444444284711290   0.055541125083328   0.875000000000000   1.0000000
B2   B   0.944458874916673   0.555555715288710   0.875000000000000   1.0000000
B2   B   0.111221375971239   0.555776085275807   0.375000000000000   1.0000000
B2   B   0.777786723723812   0.055560028528574   0.875000000000000   1.0000000
B2   B   0.276147850408642   0.053363812755053   0.375000000000000   1.0000000
B2   B   0.442170862980649   0.557829137019351   0.375000000000000   1.0000000
B2   B   0.782324940705366   0.557829137019351   0.375000000000000   1.0000000
B2   B   0.611736144188351   0.053884932957376   0.375000000000000   1.0000000
B2   B   0.444435566313591   0.555564433686408   0.875000000000000   1.0000000
B2   B   0.944155587113703   0.055844412886297   0.375000000000000   1.0000000
B2   B   0.277775673522651   0.722224326477349   0.875000000000000   1.0000000
B2   B   0.111087000010162   0.222210166671745   0.875000000000000   1.0000000
B2   B   0.444435566313591   0.222204465960518   0.875000000000000   1.0000000
B2   B   0.611119183580526   0.722246700859977   0.875000000000000   1.0000000
B2   B   0.944458874916673   0.722236492961298   0.875000000000000   1.0000000
B2   B   0.777789833328255   0.222210166671745   0.875000000000000   1.0000000
B2   B   0.111756598406098   0.722544965869713   0.375000000000000   1.0000000
B2   B   0.443882629013075   0.723852149591358   0.375000000000000   1.0000000
B2   B   0.269942546831380   0.215731696202067   0.375000000000000   1.0000000
B2   B   0.784268303797933   0.730057453168620   0.375000000000000   1.0000000
B2   B   0.612455816037359   0.215731696202067   0.375000000000000   1.0000000
B2   B   0.944155587113703   0.221644507560741   0.375000000000000   1.0000000
B2   B   0.111093616556541   0.388877553608247   0.875000000000000   1.0000000
B2   B   0.277775673522651   0.888884680378630   0.875000000000000   1.0000000
B2   B   0.611122446391753   0.888906383443460   0.875000000000000   1.0000000
B2   B   0.444437193336293   0.388885263334811   0.875000000000000   1.0000000
B2   B   0.944450603718377   0.888906383443460   0.875000000000000   1.0000000
B2   B   0.111221375971239   0.888778624028760   0.375000000000000   1.0000000
B2   B   0.777794183946122   0.388880816419474   0.875000000000000   1.0000000
B2   B   0.444223914724193   0.888778624028760   0.375000000000000   1.0000000
B2   B   0.269942546831380   0.387544183962641   0.375000000000000   1.0000000
B2   B   0.276147850408642   0.556117370986925   0.375000000000000   1.0000000
B2   B   0.626623717337497   0.373376282662503   0.375000000000000   1.0000000
B2   B   0.779077418012953   0.891488169359235   0.375000000000000   1.0000000
B2   B   0.946115067042624   0.388263855811649   0.375000000000000   1.0000000
B2   B   0.111108627829820   0.555550588992968   0.875000000000000   1.0000000
B2   B   0.277763507038702   0.055541125083328   0.875000000000000   1.0000000
B2   B   0.777795534039482   0.555564433686408   0.875000000000000   1.0000000
B2   B   0.611122446391753   0.055549396281622   0.875000000000000   1.0000000
B2   B   0.944439971471426   0.055560028528574   0.875000000000000   1.0000000
B2   B   0.055514882421893   0.111082063043642   0.124873076135727   1.0000000
B2   B   0.555556535345660   0.611192959368972   0.124397233728721   1.0000000
B2   B   0.388833387930394   0.111000109194132   0.124914593202421   1.0000000
B2   B   0.888999890805868   0.611166612069605   0.124914593202421   1.0000000
B2   B   0.722233847288413   0.111082063043642   0.124873076135727   1.0000000
B2   B   0.055610846241410   0.777798699946227   0.625104958490866   1.0000000
B2   B   0.388854520371481   0.777798699946227   0.625104958490866   1.0000000
B2   B   0.222115218084724   0.277724275709030   0.625218804441358   1.0000000
B2   B   0.722275724290970   0.777884781915276   0.625218804441358   1.0000000
B2   B   0.555556535345660   0.277696909310024   0.625602766271279   1.0000000
B2   B   0.888917936956358   0.277766152711586   0.625126923864273   1.0000000
B2   B   0.222222222222221   0.777777777777779   0.124890072940602   1.0000000
B2   B   0.055514882421893   0.277766152711586   0.124873076135727   1.0000000
B2   B   0.388807040631028   0.277696909310024   0.124397233728721   1.0000000
B2   B   0.555538216431278   0.777850917054996   0.124877298763191   1.0000000
B2   B   0.888979367290383   0.777850917054996   0.124877298763191   1.0000000
B2   B   0.722275724290970   0.277724275709030   0.124781195558642   1.0000000
B2   B   0.055565874467304   0.944434125532695   0.625115352709032   1.0000000
B2   B   0.388854520371481   0.944389153758590   0.625104958490866   1.0000000
B2   B   0.222149082945004   0.444461783568722   0.625122701236809   1.0000000
B2   B   0.555555555555557   0.444444444444443   0.625752708302635   1.0000000
B2   B   0.722233847288413   0.944485117578107   0.625126923864273   1.0000000
B2   B   0.888979367290383   0.444461783568722   0.625122701236809   1.0000000
B2   B   0.055565874467304   0.444465082267938   0.124884647290968   1.0000000
B2   B   0.222201300053773   0.944389153758590   0.124895041509133   1.0000000
B2   B   0.555534917732062   0.944434125532695   0.124884647290968   1.0000000
B2   B   0.388807040631028   0.444443464654340   0.124397233728721   1.0000000
B2   B   0.888917936956358   0.944485117578107   0.124873076135727   1.0000000
B2   B   0.722303090689976   0.444443464654340   0.124397233728721   1.0000000
B2   B   0.222201300053773   0.611145479628519   0.625104958490866   1.0000000
B2   B   0.055514882421893   0.111082063043642   0.625126923864273   1.0000000
B2   B   0.555556535345660   0.611192959368972   0.625602766271279   1.0000000
B2   B   0.388833387930394   0.111000109194132   0.625085406797579   1.0000000
B2   B   0.888999890805868   0.611166612069605   0.625085406797579   1.0000000
B2   B   0.055610846241410   0.611145479628519   0.124895041509133   1.0000000
B2   B   0.722233847288413   0.111082063043642   0.625126923864273   1.0000000
B2   B   0.222149082945004   0.111020632709618   0.124877298763191   1.0000000
B2   B   0.388833387930394   0.611166612069605   0.124914593202421   1.0000000
B2   B   0.722303090689976   0.611192959368972   0.124397233728721   1.0000000
B2   B   0.555538216431278   0.111020632709618   0.124877298763191   1.0000000
B2   B   0.388833387930394   0.611166612069605   0.625085406797579   1.0000000
B2   B   0.888888888888886   0.111111111111114   0.124881291902502   1.0000000
B2   B   0.222222222222221   0.777777777777779   0.625109927059398   1.0000000
B2   B   0.055514882421893   0.277766152711586   0.625126923864273   1.0000000
B2   B   0.388807040631028   0.277696909310024   0.625602766271279   1.0000000
B2   B   0.555538216431278   0.777850917054996   0.625122701236809   1.0000000
B2   B   0.888979367290383   0.777850917054996   0.625122701236809   1.0000000
B2   B   0.722275724290970   0.277724275709030   0.625218804441358   1.0000000
B2   B   0.055610846241410   0.777798699946227   0.124895041509133   1.0000000
B2   B   0.388854520371481   0.777798699946227   0.124895041509133   1.0000000
B2   B   0.222115218084724   0.277724275709030   0.124781195558642   1.0000000
B2   B   0.722275724290970   0.777884781915276   0.124781195558642   1.0000000
B2   B   0.555556535345660   0.277696909310024   0.124397233728721   1.0000000
B2   B   0.888917936956358   0.277766152711586   0.124873076135727   1.0000000
B2   B   0.055565874467304   0.444465082267938   0.625115352709032   1.0000000
B2   B   0.222201300053773   0.944389153758590   0.625104958490866   1.0000000
B2   B   0.555534917732062   0.944434125532695   0.625115352709032   1.0000000
B2   B   0.388807040631028   0.444443464654340   0.625602766271279   1.0000000
B2   B   0.888917936956358   0.944485117578107   0.625126923864273   1.0000000
B2   B   0.055565874467304   0.944434125532695   0.124884647290968   1.0000000
B2   B   0.722303090689976   0.444443464654340   0.625602766271279   1.0000000
B2   B   0.388854520371481   0.944389153758590   0.124895041509133   1.0000000
B2   B   0.222149082945004   0.444461783568722   0.124877298763191   1.0000000
B2   B   0.222201300053773   0.611145479628519   0.124895041509133   1.0000000
B2   B   0.555555555555557   0.444444444444443   0.124247291697364   1.0000000
B2   B   0.722233847288413   0.944485117578107   0.124873076135727   1.0000000
B2   B   0.888979367290383   0.444461783568722   0.124877298763191   1.0000000
B2   B   0.055610846241410   0.611145479628519   0.625104958490866   1.0000000
B2   B   0.222149082945004   0.111020632709618   0.625122701236809   1.0000000
B2   B   0.722303090689976   0.611192959368972   0.625602766271279   1.0000000
B2   B   0.555538216431278   0.111020632709618   0.625122701236809   1.0000000
B2   B   0.888888888888886   0.111111111111114   0.625118708097498   1.0000000


