data_1
_audit_creation_method   'vasp2cif'
_cell_length_a    17.52789999999977
_cell_length_b    17.52789999999977
_cell_length_c    15.0
_cell_angle_alpha    90.0
_cell_angle_beta    90.0
_cell_angle_gamma    119.99999999999916

_symmetry_space_group_name_H-M    'P 1'
loop_
_atom_site_label
_atom_site_type_symbol
_atom_site_fract_x
_atom_site_fract_y
_atom_site_fract_z
_atom_site_occupancy
B2   B   0.904494207249790   0.951655037372608   0.108159659316558   1.0000000
B2   B   0.905188737256814   0.094813283939182   0.106707525492887   1.0000000
B2   B   0.905416974583904   0.237698250136899   0.106159952612851   1.0000000
B2   B   0.905274382606817   0.380502501285729   0.107625490067541   1.0000000
B2   B   0.904891553244526   0.523366331282655   0.111901435886965   1.0000000
B2   B   0.904246397048839   0.666097540392592   0.114198080649054   1.0000000
B2   B   0.903824888822205   0.808563651651000   0.111521770530661   1.0000000
B2   B   0.047635381722886   0.952366639473118   0.109195147324422   1.0000000
B2   B   0.048346983823395   0.095507813946206   0.108159659316558   1.0000000
B2   B   0.048454922297977   0.238070937339165   0.106039230244004   1.0000000
B2   B   0.048218113763936   0.380820476522793   0.104431121585049   1.0000000
B2   B   0.047518264259366   0.523731769845911   0.105997442083438   1.0000000
B2   B   0.047293296061370   0.666600278714427   0.108567218135232   1.0000000
B2   B   0.047248263626890   0.809439583083990   0.109657049431090   1.0000000
B2   B   0.190562438112013   0.952753757569113   0.109657049431090   1.0000000
B2   B   0.191438369545003   0.096177132373790   0.111521770530661   1.0000000
B2   B   0.192344121195277   0.239639739473678   0.109945650360380   1.0000000
B2   B   0.191357144658348   0.381253528555424   0.104268809113927   1.0000000
B2   B   0.190036720784740   0.524138312352709   0.101125745044194   1.0000000
B2   B   0.190017923772147   0.666964639272897   0.103816349516734   1.0000000
B2   B   0.190215964517355   0.809786056678648   0.107277297866336   1.0000000
B2   B   0.333401742482571   0.952708725134633   0.108567218135232   1.0000000
B2   B   0.333904480804406   0.095755624147157   0.114198080649054   1.0000000
B2   B   0.335114570031434   0.239859577830946   0.120045244319084   1.0000000
B2   B   0.336644175461588   0.384108786030532   0.115369007719575   1.0000000
B2   B   0.331909816874421   0.524761102130744   0.103699594886047   1.0000000
B2   B   0.332606298522561   0.667395722674438   0.100037124007817   1.0000000
B2   B   0.333037381924102   0.809984097423857   0.103816349516734   1.0000000
B2   B   0.476270251351088   0.952483756936636   0.105997442083438   1.0000000
B2   B   0.476635689914343   0.095110467951470   0.111901435886965   1.0000000
B2   B   0.476910083445602   0.237612103554294   0.121435650005398   1.0000000
B2   B   0.478437074449797   0.380814677953017   0.131613763788065   1.0000000
B2   B   0.475240919066255   0.668092204322578   0.103699594886047   1.0000000
B2   B   0.475863708844289   0.809965300411263   0.101125745044194   1.0000000
B2   B   0.619181544673211   0.951783907432068   0.104431121585049   1.0000000
B2   B   0.619499519910274   0.094727638589179   0.107625490067541   1.0000000
B2   B   0.619729941646418   0.237399307897132   0.114785259275049   1.0000000
B2   B   0.620130293265984   0.379871727930019   0.125370165971299   1.0000000
B2   B   0.619187343242986   0.521564946747202   0.131613763788065   1.0000000
B2   B   0.615893235165472   0.663357845735411   0.115369007719575   1.0000000
B2   B   0.618748492640580   0.808644876537655   0.104268809113927   1.0000000
B2   B   0.761931083856838   0.951547098898026   0.106039230244004   1.0000000
B2   B   0.762303771059104   0.094585046612092   0.106159952612851   1.0000000
B2   B   0.762536766215935   0.237465254980069   0.108329483820714   1.0000000
B2   B   0.762602713298870   0.380272079549586   0.114785259275049   1.0000000
B2   B   0.762389917641709   0.523091937751395   0.121435650005398   1.0000000
B2   B   0.760142443365057   0.664887451165566   0.120045244319084   1.0000000
B2   B   0.760362281722325   0.807657900000726   0.109945650360380   1.0000000
C2   C   0.459232976808347   0.540769044388651   0.157449279157723   1.0000000
N2   N   0.952074099372819   0.904086932313606   0.109233622093760   1.0000000
N2   N   0.952771586387095   0.047229815530911   0.107473913220932   1.0000000
N2   N   0.953090181982229   0.190160928573304   0.106219597221922   1.0000000
N2   N   0.952974892303838   0.332987510814104   0.105662778188175   1.0000000
N2   N   0.952435032282810   0.475803027404952   0.108254252515724   1.0000000
N2   N   0.952043972837584   0.618642459712071   0.111484748704495   1.0000000
N2   N   0.951855998907011   0.761366369702738   0.111678168252972   1.0000000
N2   N   0.095203993413538   0.904797408504461   0.109255092443683   1.0000000
N2   N   0.095914469604392   0.047927302545187   0.109233622093760   1.0000000
N2   N   0.096631560203951   0.191073780185107   0.107632669876499   1.0000000
N2   N   0.096077456035108   0.333340692787306   0.104521984567889   1.0000000
N2   N   0.095090745510044   0.476116977646655   0.103725785042548   1.0000000
N2   N   0.094862377569341   0.619028431430653   0.106130893120081   1.0000000
N2   N   0.094887232439835   0.761924252991904   0.108471620839903   1.0000000
N2   N   0.238077148926102   0.905114169478163   0.108471620839903   1.0000000
N2   N   0.238635032215268   0.048145403010996   0.111678168252972   1.0000000
N2   N   0.239796074686886   0.191818709304929   0.113724467356297   1.0000000
N2   N   0.240568035914830   0.335220462162744   0.108246790114408   1.0000000
N2   N   0.237602888521235   0.476426119471651   0.100269663276934   1.0000000
N2   N   0.237461966851237   0.619369188116980   0.100935309847925   1.0000000
N2   N   0.237769166137488   0.762232235780517   0.104903925044486   1.0000000
N2   N   0.380972970487345   0.905139024348657   0.106130893120081   1.0000000
N2   N   0.381358942205928   0.047957429080422   0.111484748704495   1.0000000
N2   N   0.381838837917369   0.191120349023962   0.119629865859109   1.0000000
N2   N   0.383656085379190   0.335730228889864   0.125463668455191   1.0000000
N2   N   0.381736713271531   0.478959535663251   0.114444809927336   1.0000000
N2   N   0.380067446940211   0.619933954977787   0.100640233353975   1.0000000
N2   N   0.380632213801019   0.762539435066769   0.100935309847925   1.0000000
N2   N   0.523884424270341   0.904910656407955   0.103725785042548   1.0000000
N2   N   0.524198374512045   0.047566369635196   0.108254252515724   1.0000000
N2   N   0.524473603837273   0.190181222740737   0.116294620318316   1.0000000
N2   N   0.524996873032918   0.332663584810732   0.127716854683275   1.0000000
N2   N   0.521041866253746   0.618264688646467   0.114444809927336   1.0000000
N2   N   0.523575282445347   0.762398513396771   0.100269663276934   1.0000000
N2   N   0.666660709129690   0.903923945882891   0.104521984567889   1.0000000
N2   N   0.667013891102892   0.047026509614168   0.105662778188175   1.0000000
N2   N   0.667265761911299   0.189918924115990   0.109510786964766   1.0000000
N2   N   0.667470423893669   0.332530978023327   0.118534998774797   1.0000000
N2   N   0.667337817106264   0.475004528884079   0.127716854683275   1.0000000
N2   N   0.664271173027133   0.616345316538808   0.125463668455191   1.0000000
N2   N   0.664780939754253   0.759433366003176   0.108246790114408   1.0000000
N2   N   0.808927621732891   0.903369841714048   0.107632669876499   1.0000000
N2   N   0.809840473344695   0.046911219935776   0.106219597221922   1.0000000
N2   N   0.810105965116867   0.189895436801132   0.106726826023837   1.0000000
N2   N   0.810082477802009   0.332735640005698   0.109510786964766   1.0000000
N2   N   0.809820179177262   0.475527798079724   0.116294620318316   1.0000000
N2   N   0.808881052894036   0.618162564000630   0.119629865859109   1.0000000
N2   N   0.808182692613069   0.760205327231119   0.113724467356297   1.0000000
O2   O   0.527311574590925   0.472689827326073   0.138826023900241   1.0000000


