data_1
_audit_creation_method   'vasp2cif'
_cell_length_a    17.52789999999977
_cell_length_b    17.52789999999977
_cell_length_c    15.0
_cell_angle_alpha    90.0
_cell_angle_beta    90.0
_cell_angle_gamma    119.99999999999916

_symmetry_space_group_name_H-M    'P 1'
loop_
_atom_site_label
_atom_site_type_symbol
_atom_site_fract_x
_atom_site_fract_y
_atom_site_fract_z
_atom_site_occupancy
Al2   Al   0.541360573119917   0.458640828797088   0.110909156316045   1.0000000
As2   As   0.475514435080408   0.524487586116593   0.111520395578252   1.0000000
B2   B   0.906167299251691   0.954668605625809   0.111040211847983   1.0000000
B2   B   0.903946953707128   0.096055067488863   0.111051934476537   1.0000000
B2   B   0.903489308748005   0.238382743230586   0.111075442082061   1.0000000
B2   B   0.904611128216177   0.381345918120569   0.110955455833803   1.0000000
B2   B   0.908424152837041   0.525147190821267   0.110973487397473   1.0000000
B2   B   0.909382630900497   0.669442663531319   0.111069062305902   1.0000000
B2   B   0.910067376424007   0.814134393416075   0.111058075325612   1.0000000
B2   B   0.047879256444554   0.952122764751454   0.111024056173025   1.0000000
B2   B   0.045333415570187   0.093834721944317   0.111040211847983   1.0000000
B2   B   0.044536193501587   0.236988234498716   0.111006920595286   1.0000000
B2   B   0.045293067248196   0.380638177612038   0.110971747067153   1.0000000
B2   B   0.047571356070613   0.524302539712493   0.110970935342360   1.0000000
B2   B   0.049467047691365   0.667455554938306   0.111018031103782   1.0000000
B2   B   0.049529020156117   0.810178321327896   0.111056274975021   1.0000000
B2   B   0.189823699868116   0.950473001039887   0.111056274975021   1.0000000
B2   B   0.185867627779924   0.089934644771988   0.111058075325612   1.0000000
B2   B   0.184077393711652   0.233036487910276   0.111045390160322   1.0000000
B2   B   0.184986344950105   0.378717333333253   0.111009294695851   1.0000000
B2   B   0.186875558902225   0.523809033525160   0.111049914654717   1.0000000
B2   B   0.190677447308980   0.666906620922300   0.111082527600736   1.0000000
B2   B   0.190930854036603   0.809071167159401   0.111033113917873   1.0000000
B2   B   0.332546466258681   0.950534973504645   0.111018031103782   1.0000000
B2   B   0.330559357665677   0.090619390295499   0.111069062305902   1.0000000
B2   B   0.322414384247707   0.226211382116910   0.111053473722817   1.0000000
B2   B   0.322010066126248   0.372486446120063   0.111025002341231   1.0000000
B2   B   0.324424960635191   0.522526668673571   0.111059487349097   1.0000000
B2   B   0.332827194159273   0.667174827037725   0.111150530318539   1.0000000
B2   B   0.333095400274697   0.809324573887006   0.111082527600736   1.0000000
B2   B   0.475699481484508   0.952430665125389   0.110970935342360   1.0000000
B2   B   0.474854830375730   0.091577868358948   0.110973487397473   1.0000000
B2   B   0.473065953774284   0.228603159765631   0.110974985306997   1.0000000
B2   B   0.454201767617249   0.349635893679387   0.111106201413639   1.0000000
B2   B   0.477475352523425   0.675577060561824   0.111059487349097   1.0000000
B2   B   0.476192987671837   0.813126462293778   0.111049914654717   1.0000000
B2   B   0.619363843583973   0.954708953947798   0.110971747067153   1.0000000
B2   B   0.618656103075433   0.095390892979812   0.110955455833803   1.0000000
B2   B   0.618481437734538   0.236471167698089   0.110950691049161   1.0000000
B2   B   0.620738493528130   0.379263527667880   0.110921836784554   1.0000000
B2   B   0.650366127516609   0.545800253579746   0.111106201413639   1.0000000
B2   B   0.627515575075933   0.677991955070751   0.111025002341231   1.0000000
B2   B   0.621284687862770   0.815015676245910   0.111009294695851   1.0000000
B2   B   0.763013786697275   0.955465827694410   0.111006920595286   1.0000000
B2   B   0.761619277965422   0.096512712448000   0.111075442082061   1.0000000
B2   B   0.761585774731094   0.238416246464907   0.111029578946154   1.0000000
B2   B   0.763530853497898   0.381520583461458   0.110950691049161   1.0000000
B2   B   0.771398861430375   0.526936067422712   0.110974985306997   1.0000000
B2   B   0.773790639079093   0.677587636949283   0.111053473722817   1.0000000
B2   B   0.766965533285723   0.815924627484351   0.111045390160322   1.0000000
N2   N   0.954423768061607   0.907565664480477   0.111009870899222   1.0000000
N2   N   0.951460740769487   0.048540661148524   0.111022797850373   1.0000000
N2   N   0.950331260151337   0.190516068388466   0.111038757800365   1.0000000
N2   N   0.950831943298626   0.333188974945236   0.110989740747490   1.0000000
N2   N   0.953411789779865   0.476376046083368   0.110913370746836   1.0000000
N2   N   0.955107777807814   0.620239659781220   0.111001071857382   1.0000000
N2   N   0.955501361409859   0.764222680475466   0.111059123210795   1.0000000
N2   N   0.095510125758505   0.904491276159494   0.111026172477533   1.0000000
N2   N   0.092435737437523   0.045577633856393   0.111009870899222   1.0000000
N2   N   0.090550370775065   0.187946713736458   0.111012333352352   1.0000000
N2   N   0.091023323624905   0.331805161316707   0.110958283650964   1.0000000
N2   N   0.092857832737640   0.475753475513118   0.110962316259828   1.0000000
N2   N   0.095889820428622   0.619298218507829   0.110999933851856   1.0000000
N2   N   0.096432736026744   0.762166714330621   0.111018461731778   1.0000000
N2   N   0.237834687587388   0.903568665891274   0.111018461731778   1.0000000
N2   N   0.235778721442542   0.044500040508151   0.111059123210795   1.0000000
N2   N   0.229595924745513   0.182866080872480   0.111064466057779   1.0000000
N2   N   0.228816140170207   0.327394925038712   0.111017798363332   1.0000000
N2   N   0.230897270067237   0.474508179509380   0.111028852692260   1.0000000
N2   N   0.237401276502770   0.619113737224709   0.111102761727732   1.0000000
N2   N   0.238272746304167   0.761728655613843   0.111054592257690   1.0000000
N2   N   0.380703183410176   0.904111581489384   0.110999933851856   1.0000000
N2   N   0.379761742136768   0.044893624110177   0.111001071857382   1.0000000
N2   N   0.376904202612083   0.184439456235890   0.111047358797587   1.0000000
N2   N   0.364230036527460   0.318261688556693   0.110985371793197   1.0000000
N2   N   0.360160778969168   0.466841692809498   0.110983219359607   1.0000000
N2   N   0.380269145778298   0.619732256139697   0.111103262103835   1.0000000
N2   N   0.380887664693292   0.762600125415242   0.111102761727732   1.0000000
N2   N   0.524247926403884   0.907143569180360   0.110962316259828   1.0000000
N2   N   0.523625355833637   0.046589612138138   0.110913370746836   1.0000000
N2   N   0.523108351736763   0.185453829815127   0.110965879235485   1.0000000
N2   N   0.520839429935258   0.321837630675041   0.110876837680414   1.0000000
N2   N   0.533159709107519   0.639840622948828   0.110983219359607   1.0000000
N2   N   0.525493222407610   0.769104131850754   0.111028852692260   1.0000000
N2   N   0.668196240600302   0.908978078293086   0.110958283650964   1.0000000
N2   N   0.666812426971764   0.049169458619381   0.110989740747490   1.0000000
N2   N   0.666568172926672   0.190372321811023   0.110961782893302   1.0000000
N2   N   0.667510319877740   0.332491082039250   0.110929505608992   1.0000000
N2   N   0.678163771241960   0.479161971981751   0.110876837680414   1.0000000
N2   N   0.681739713360323   0.635771365390528   0.110985371793197   1.0000000
N2   N   0.672606476878277   0.771185261747781   0.111017798363332   1.0000000
N2   N   0.812054688181551   0.909451031142936   0.111012333352352   1.0000000
N2   N   0.809485333529529   0.049670141766672   0.111038757800365   1.0000000
N2   N   0.808825359944233   0.191176041973762   0.111082657429468   1.0000000
N2   N   0.809629080106984   0.333433228990335   0.110961782893302   1.0000000
N2   N   0.814547572102872   0.476893050180228   0.110965879235485   1.0000000
N2   N   0.815561945682107   0.623097199305919   0.111047358797587   1.0000000
N2   N   0.817135321045510   0.770405477172497   0.111064466057779   1.0000000


