data_1
_audit_creation_method   'vasp2cif'
_cell_length_a    17.52789999999977
_cell_length_b    17.52789999999977
_cell_length_c    15.0
_cell_angle_alpha    90.0
_cell_angle_beta    90.0
_cell_angle_gamma    119.99999999999916

_symmetry_space_group_name_H-M    'P 1'
loop_
_atom_site_label
_atom_site_type_symbol
_atom_site_fract_x
_atom_site_fract_y
_atom_site_fract_z
_atom_site_occupancy
B2   B   0.905095301040989   0.953069989873318   0.111020190423189   1.0000000
B2   B   0.905540144241281   0.096588412761370   0.111018696306233   1.0000000
B2   B   0.905434700926067   0.239595331931288   0.111070266798049   1.0000000
B2   B   0.905202652765651   0.382300121606979   0.111037392366854   1.0000000
B2   B   0.904724990353121   0.524657656241765   0.111020910854826   1.0000000
B2   B   0.903580374502256   0.666947651283707   0.111037614685770   1.0000000
B2   B   0.904442159272538   0.809716642611391   0.111031450488351   1.0000000
B2   B   0.046871191998897   0.951077252386626   0.111007090453017   1.0000000
B2   B   0.046999521831919   0.094300564742020   0.111014184829175   1.0000000
B2   B   0.047930502958114   0.238432389306737   0.111011350855883   1.0000000
B2   B   0.048508999228794   0.382004389224139   0.111043633608990   1.0000000
B2   B   0.048559713662199   0.524466079661135   0.111032819802969   1.0000000
B2   B   0.047899657709133   0.666451633436365   0.111030720570834   1.0000000
B2   B   0.047244543486240   0.808612749978269   0.111016207696349   1.0000000
B2   B   0.189767404980989   0.950344592585244   0.111046401001126   1.0000000
B2   B   0.188679292749810   0.092136961482782   0.111053527328378   1.0000000
B2   B   0.188666665113387   0.235096682736061   0.111003453413362   1.0000000
B2   B   0.190943842054710   0.380816196046657   0.110989852417735   1.0000000
B2   B   0.192310078809322   0.524529052439417   0.111003199175125   1.0000000
B2   B   0.192556232247893   0.666430187387307   0.111021243818927   1.0000000
B2   B   0.190721999626642   0.808352310396832   0.110996583386386   1.0000000
B2   B   0.333205170695146   0.950743011989089   0.111045126953221   1.0000000
B2   B   0.332106366240729   0.092211350737149   0.111056431866428   1.0000000
B2   B   0.330040273841031   0.232380606643339   0.111020000508596   1.0000000
B2   B   0.329794851467128   0.373732900554577   0.111004690986987   1.0000000
B2   B   0.335272049250522   0.525372753460163   0.111006008031698   1.0000000
B2   B   0.338390775373476   0.666924150124991   0.111025002063675   1.0000000
B2   B   0.334416708271205   0.808804590611443   0.111006133633521   1.0000000
B2   B   0.476727945039766   0.952438225226497   0.111001575305057   1.0000000
B2   B   0.475860671071016   0.094118688298013   0.111037253097272   1.0000000
B2   B   0.474768004384015   0.235163466828383   0.111010726223791   1.0000000
B2   B   0.471024280751942   0.373238380598933   0.111080711910565   1.0000000
B2   B   0.488534506283563   0.670233069696208   0.111030634520539   1.0000000
B2   B   0.477930073510274   0.810582822023708   0.111027759524618   1.0000000
B2   B   0.620142023162363   0.954883869668939   0.110994872704225   1.0000000
B2   B   0.619372965506303   0.096566940136825   0.111001443122051   1.0000000
B2   B   0.618709154476597   0.238775036776961   0.111010730188406   1.0000000
B2   B   0.617986014101294   0.381753474448618   0.111006135629655   1.0000000
B2   B   0.619716543525170   0.527826730948443   0.111099515186955   1.0000000
B2   B   0.613336897617273   0.672425486710518   0.111001721243929   1.0000000
B2   B   0.621826166601940   0.814592714008110   0.111007600973873   1.0000000
B2   B   0.763513164392948   0.955096403159998   0.110995213443510   1.0000000
B2   B   0.762749425804942   0.097275101919180   0.111024940413473   1.0000000
B2   B   0.762232242512405   0.239717055920523   0.111025433501830   1.0000000
B2   B   0.761730400618268   0.382403973170343   0.110999172108194   1.0000000
B2   B   0.761151744238584   0.525117889605397   0.111011825386436   1.0000000
B2   B   0.759349305505866   0.668618231812594   0.111020772775334   1.0000000
B2   B   0.762871838854877   0.811827018406105   0.111033789391572   1.0000000
C2   C   0.466042356332591   0.513747935909879   0.111336362231937   1.0000000
C2   C   0.518288466536678   0.474607547634173   0.111330477455345   1.0000000
N2   N   0.951845512554441   0.904554651003478   0.110999792537624   1.0000000
N2   N   0.952346338118790   0.048052453461625   0.111000429041721   1.0000000
N2   N   0.953134883664363   0.191824591150626   0.111014517311754   1.0000000
N2   N   0.953323372532277   0.334854503019599   0.111044193953851   1.0000000
N2   N   0.953005647673237   0.477380855506559   0.111012540992051   1.0000000
N2   N   0.951966277784642   0.619586561562203   0.111009919861033   1.0000000
N2   N   0.951658068857846   0.761756764438130   0.111013910023011   1.0000000
N2   N   0.094614464349521   0.903527759619445   0.110997537134201   1.0000000
N2   N   0.094080729605489   0.046088974222213   0.111005858272055   1.0000000
N2   N   0.094543118230786   0.189647524158830   0.110989182290704   1.0000000
N2   N   0.096458470213168   0.334182927352692   0.110998143321011   1.0000000
N2   N   0.097073148612058   0.477197086585199   0.111009386280626   1.0000000
N2   N   0.096760837601878   0.619346017407092   0.111011909218000   1.0000000
N2   N   0.095356016230308   0.761287532087963   0.110998942543711   1.0000000
N2   N   0.238011437525754   0.903305821040601   0.111006295360083   1.0000000
N2   N   0.237074807807718   0.045406482231711   0.111049990565832   1.0000000
N2   N   0.235856797066683   0.187242352740400   0.111008761559638   1.0000000
N2   N   0.236994001077871   0.331112671418753   0.110979381748439   1.0000000
N2   N   0.240952796151787   0.476942464098432   0.110972944237295   1.0000000
N2   N   0.242147894952533   0.619334499220440   0.110995531116274   1.0000000
N2   N   0.239299247500556   0.761218343013191   0.110978603318196   1.0000000
N2   N   0.381541827728130   0.903820119964179   0.110998385932650   1.0000000
N2   N   0.380602958971272   0.045903039033225   0.111038727838942   1.0000000
N2   N   0.379554339185255   0.187472277453359   0.111020274322051   1.0000000
N2   N   0.377203053304358   0.327464276769841   0.110995655442456   1.0000000
N2   N   0.380116602351893   0.472116246228103   0.111038418999809   1.0000000
N2   N   0.389975491481464   0.619704826033647   0.111005520303017   1.0000000
N2   N   0.383201368029521   0.761554350512906   0.111011653555424   1.0000000
N2   N   0.524966408100728   0.905514659754505   0.110980640898259   1.0000000
N2   N   0.524115520968171   0.047598813562847   0.110988585921966   1.0000000
N2   N   0.523342790384615   0.189480961370443   0.111002117953753   1.0000000
N2   N   0.521855951614911   0.330819690404315   0.110990622016299   1.0000000
N2   N   0.526878407360362   0.763767729780823   0.111024008187837   1.0000000
N2   N   0.668448904249563   0.908169444290432   0.110979813627059   1.0000000
N2   N   0.667487063571582   0.049646270111399   0.110992410817892   1.0000000
N2   N   0.666820045534567   0.191930331736890   0.110995317474814   1.0000000
N2   N   0.665846453340958   0.334740062897865   0.110984210947568   1.0000000
N2   N   0.665210357335704   0.478263216893086   0.110997214882361   1.0000000
N2   N   0.661175437451395   0.622334613343262   0.110990033243466   1.0000000
N2   N   0.667359593649465   0.765340921962699   0.110997155716419   1.0000000
N2   N   0.810081460196477   0.906437560054840   0.111007364493795   1.0000000
N2   N   0.810578178089066   0.049776826245299   0.110990028014180   1.0000000
N2   N   0.810207511419719   0.192379932066784   0.111032745832246   1.0000000
N2   N   0.809656096082465   0.335010319266093   0.110998867087923   1.0000000
N2   N   0.808982033212175   0.477623709070593   0.110993830923384   1.0000000
N2   N   0.807005441345586   0.620196098217333   0.111013900384309   1.0000000
N2   N   0.808785848520021   0.763012168674549   0.111020027506795   1.0000000


