data_1
_audit_creation_method   'vasp2cif'
_cell_length_a    17.52789999999977
_cell_length_b    17.52789999999977
_cell_length_c    15.0
_cell_angle_alpha    90.0
_cell_angle_beta    90.0
_cell_angle_gamma    119.99999999999916

_symmetry_space_group_name_H-M    'P 1'
loop_
_atom_site_label
_atom_site_type_symbol
_atom_site_fract_x
_atom_site_fract_y
_atom_site_fract_z
_atom_site_occupancy
B2   B   0.905164695473856   0.952646633568348   0.111016516488051   1.0000000
B2   B   0.904772875170926   0.095229146025070   0.111023313266259   1.0000000
B2   B   0.904667351005359   0.238048022348182   0.111047491152305   1.0000000
B2   B   0.904772875170926   0.380972422836853   0.111023313266259   1.0000000
B2   B   0.905164695473856   0.523948467153511   0.111016516488051   1.0000000
B2   B   0.905470716863616   0.666964738124805   0.111053398394941   1.0000000
B2   B   0.905470716863616   0.809936383986813   0.111053398394941   1.0000000
B2   B   0.047709661243081   0.952292359952923   0.111023674609018   1.0000000
B2   B   0.047355387627656   0.094837325722140   0.111016516488051   1.0000000
B2   B   0.047180946329149   0.237733110254254   0.111021286403323   1.0000000
B2   B   0.047180946329149   0.380878241321895   0.111021286403323   1.0000000
B2   B   0.047355387627656   0.523948467153511   0.111016516488051   1.0000000
B2   B   0.047709661243081   0.666849418094156   0.111023674609018   1.0000000
B2   B   0.047855772968948   0.809643944886476   0.111006440292526   1.0000000
B2   B   0.190358076309527   0.952146248227056   0.111006440292526   1.0000000
B2   B   0.190065637209191   0.094531304332380   0.111053398394941   1.0000000
B2   B   0.189392888891474   0.236831926046247   0.111035478150952   1.0000000
B2   B   0.189350435445010   0.380390420346005   0.111016165005088   1.0000000
B2   B   0.189392888891474   0.523991368093229   0.111035478150952   1.0000000
B2   B   0.190065637209191   0.666964738124805   0.111053398394941   1.0000000
B2   B   0.190358076309527   0.809643944886476   0.111006440292526   1.0000000
B2   B   0.333152603102843   0.952292359952923   0.111023674609018   1.0000000
B2   B   0.333037283072193   0.094531304332380   0.111053398394941   1.0000000
B2   B   0.332477466342405   0.236383316734812   0.111048679315114   1.0000000
B2   B   0.331068367873028   0.377415991237718   0.111016987225718   1.0000000
B2   B   0.331068367873028   0.525082781882309   0.111016987225718   1.0000000
B2   B   0.332477466342405   0.667524554854594   0.111048679315114   1.0000000
B2   B   0.333037283072193   0.809936383986813   0.111053398394941   1.0000000
B2   B   0.476053554043488   0.952646633568348   0.111016516488051   1.0000000
B2   B   0.476053554043488   0.094837325722140   0.111016516488051   1.0000000
B2   B   0.476010653103769   0.236831926046247   0.111035478150952   1.0000000
B2   B   0.474919239314689   0.377415991237718   0.111016987225718   1.0000000
B2   B   0.474919239314689   0.668933653323971   0.111016987225718   1.0000000
B2   B   0.476010653103769   0.810609132304530   0.111035478150952   1.0000000
B2   B   0.619123779874108   0.952821074866854   0.111021286403323   1.0000000
B2   B   0.619029598359151   0.095229146025070   0.111023313266259   1.0000000
B2   B   0.619123779874108   0.237733110254254   0.111021286403323   1.0000000
B2   B   0.619611600849999   0.380390420346005   0.111016165005088   1.0000000
B2   B   0.622586029958286   0.525082781882309   0.111016987225718   1.0000000
B2   B   0.622586029958286   0.668933653323971   0.111016987225718   1.0000000
B2   B   0.619611600849999   0.810651585750993   0.111016165005088   1.0000000
B2   B   0.762268910941750   0.952821074866854   0.111021286403323   1.0000000
B2   B   0.761953998847822   0.095334670190637   0.111047491152305   1.0000000
B2   B   0.761953998847822   0.238048022348182   0.111047491152305   1.0000000
B2   B   0.762268910941750   0.380878241321895   0.111021286403323   1.0000000
B2   B   0.763170095149756   0.523991368093229   0.111035478150952   1.0000000
B2   B   0.763618704461192   0.667524554854594   0.111048679315114   1.0000000
B2   B   0.763170095149756   0.810609132304530   0.111035478150952   1.0000000
N2   N   0.952539790439445   0.904850218937301   0.111015690473157   1.0000000
N2   N   0.952394159773099   0.047607242144907   0.110992673162267   1.0000000
N2   N   0.952309157267848   0.190423692456386   0.111018675800017   1.0000000
N2   N   0.952309157267848   0.333312446929460   0.111018675800017   1.0000000
N2   N   0.952394159773099   0.476213899746190   0.110992673162267   1.0000000
N2   N   0.952539790439445   0.619118265177140   0.111015690473157   1.0000000
N2   N   0.952569851366100   0.761999272520551   0.111023882588296   1.0000000
N2   N   0.095263106656690   0.904738295261308   0.110990564101619   1.0000000
N2   N   0.095151182980698   0.047461611478561   0.111015690473157   1.0000000
N2   N   0.094863134073143   0.190112315174299   0.111008796862002   1.0000000
N2   N   0.094929321498847   0.333179007586424   0.110999556677194   1.0000000
N2   N   0.094863134073143   0.476179512572845   0.111008796862002   1.0000000
N2   N   0.095151182980698   0.619118265177140   0.111015690473157   1.0000000
N2   N   0.095263106656690   0.761955216626387   0.110990564101619   1.0000000
N2   N   0.238046185291618   0.904738295261308   0.110990564101619   1.0000000
N2   N   0.238002129397454   0.047431550551906   0.111023882588296   1.0000000
N2   N   0.237803656532947   0.190072242687297   0.111033228505680   1.0000000
N2   N   0.237017090174487   0.332440098399783   0.111004597800193   1.0000000
N2   N   0.237017090174487   0.476005685448697   0.111004597800193   1.0000000
N2   N   0.237803656532947   0.619160107520646   0.111033228505680   1.0000000
N2   N   0.238002129397454   0.761999272520551   0.111023882588296   1.0000000
N2   N   0.380883136740859   0.904850218937301   0.111015690473157   1.0000000
N2   N   0.380883136740859   0.047461611478561   0.111015690473157   1.0000000
N2   N   0.380841294397353   0.190072242687297   0.111033228505680   1.0000000
N2   N   0.380572531416192   0.332572354589381   0.111014613849480   1.0000000
N2   N   0.372901038658422   0.472164866166208   0.110976958501347   1.0000000
N2   N   0.380572531416192   0.619428870501807   0.111014613849480   1.0000000
N2   N   0.380841294397353   0.762197745385059   0.111033228505680   1.0000000
N2   N   0.523821889344152   0.905138267844855   0.111008796862002   1.0000000
N2   N   0.523787502170807   0.047607242144907   0.110992673162267   1.0000000
N2   N   0.523821889344152   0.190112315174299   0.111008796862002   1.0000000
N2   N   0.523995716468300   0.332440098399783   0.111004597800193   1.0000000
N2   N   0.527836535750788   0.472164866166208   0.110976958501347   1.0000000
N2   N   0.527836535750788   0.627100363259576   0.110976958501347   1.0000000
N2   N   0.523995716468300   0.762984311743519   0.111004597800193   1.0000000
N2   N   0.666822394330572   0.905072080419151   0.110999556677194   1.0000000
N2   N   0.666688954987537   0.047692244650158   0.111018675800017   1.0000000
N2   N   0.666688954987537   0.190423692456386   0.111018675800017   1.0000000
N2   N   0.666822394330572   0.333179007586424   0.110999556677194   1.0000000
N2   N   0.667561303517213   0.476005685448697   0.111004597800193   1.0000000
N2   N   0.667429047327616   0.619428870501807   0.111014613849480   1.0000000
N2   N   0.667561303517213   0.762984311743519   0.111004597800193   1.0000000
N2   N   0.809889086743699   0.905138267844855   0.111008796862002   1.0000000
N2   N   0.809577709461612   0.047692244650158   0.111018675800017   1.0000000
N2   N   0.809525273905997   0.190476128012001   0.111032105240342   1.0000000
N2   N   0.809577709461612   0.333312446929460   0.111018675800017   1.0000000
N2   N   0.809889086743699   0.476179512572845   0.111008796862002   1.0000000
N2   N   0.809929159230702   0.619160107520646   0.111033228505680   1.0000000
N2   N   0.809929159230702   0.762197745385059   0.111033228505680   1.0000000
O2   O   0.476191212381998   0.523810808815000   0.111087920573903   1.0000000


