data_1
_audit_creation_method   'vasp2cif'
_cell_length_a    14.93631414619966
_cell_length_b    14.936314146199727
_cell_length_c    13.341276283792837
_cell_angle_alpha    90.0
_cell_angle_beta    90.0
_cell_angle_gamma    119.99999999999984

_symmetry_space_group_name_H-M    'P 1'
loop_
_atom_site_label
_atom_site_type_symbol
_atom_site_fract_x
_atom_site_fract_y
_atom_site_fract_z
_atom_site_occupancy
O2   O   0.555555555555557   0.444444444444443   0.375000000000000   1.0000000
N2   N   0.111103011723950   0.055551989902386   0.124975799487048   1.0000000
N2   N   0.611085555214065   0.555504443761459   0.125377512998191   1.0000000
N2   N   0.444468109215800   0.055585946560456   0.124991051448358   1.0000000
N2   N   0.944414053439544   0.555531890784200   0.124991051448358   1.0000000
N2   N   0.777783585526995   0.055558459430165   0.124960913149879   1.0000000
N2   N   0.111098309570390   0.722215821451859   0.625009743145166   1.0000000
N2   N   0.444468109215800   0.722215495988680   0.625008948551643   1.0000000
N2   N   0.277758578261955   0.222227288415521   0.624980844659787   1.0000000
N2   N   0.777772711584480   0.722241421738045   0.624980844659787   1.0000000
N2   N   0.611135376820237   0.222227288415521   0.624980844659787   1.0000000
N2   N   0.944441540569835   0.222216414473005   0.625039086850121   1.0000000
N2   N   0.277784178548141   0.722215821451859   0.124990256854834   1.0000000
N2   N   0.111073423663229   0.222203378498279   0.124968702430337   1.0000000
N2   N   0.444458628087709   0.222250589508754   0.125058850847886   1.0000000
N2   N   0.611135376820237   0.722241421738045   0.125019155340214   1.0000000
N2   N   0.944414053439544   0.722215495988680   0.124991051448358   1.0000000
N2   N   0.777796621501722   0.222203378498279   0.124968702430337   1.0000000
N2   N   0.111110964424683   0.888889035575318   0.625006362149336   1.0000000
N2   N   0.444444737817306   0.888889035575318   0.625006362149336   1.0000000
N2   N   0.277758578261955   0.388864623179763   0.624980844659787   1.0000000
N2   N   0.611085555214065   0.388914444785935   0.624622487001809   1.0000000
N2   N   0.777796621501722   0.888926576336771   0.625031297569663   1.0000000
N2   N   0.944448010097614   0.388884355154893   0.625024200512952   1.0000000
N2   N   0.111103011723950   0.388884355154893   0.124975799487048   1.0000000
N2   N   0.277784178548141   0.888901690429610   0.124990256854834   1.0000000
N2   N   0.611115644845107   0.888896988276050   0.124975799487048   1.0000000
N2   N   0.444495556238542   0.388914444785935   0.125377512998191   1.0000000
N2   N   0.944448010097614   0.888896988276050   0.124975799487048   1.0000000
N2   N   0.777772711584480   0.388864623179763   0.125019155340214   1.0000000
N2   N   0.277784504011320   0.555531890784200   0.625008948551643   1.0000000
N2   N   0.111103011723950   0.055551989902386   0.625024200512952   1.0000000
N2   N   0.611085555214065   0.555504443761459   0.624622487001809   1.0000000
N2   N   0.444468109215800   0.055585946560456   0.625008948551643   1.0000000
N2   N   0.944414053439544   0.555531890784200   0.625008948551643   1.0000000
N2   N   0.111110964424683   0.555555262182694   0.124993637850664   1.0000000
N2   N   0.777783585526995   0.055558459430165   0.625039086850121   1.0000000
N2   N   0.277784504011320   0.055585946560456   0.124991051448358   1.0000000
N2   N   0.444458628087709   0.555541371912291   0.125058850847886   1.0000000
N2   N   0.777749410491246   0.555541371912291   0.125058850847886   1.0000000
N2   N   0.611115644845107   0.055551989902386   0.124975799487048   1.0000000
N2   N   0.444458628087709   0.555541371912291   0.624941149152114   1.0000000
N2   N   0.944441540569835   0.055558459430165   0.124960913149879   1.0000000
N2   N   0.277784178548141   0.722215821451859   0.625009743145166   1.0000000
N2   N   0.111073423663229   0.222203378498279   0.625031297569663   1.0000000
N2   N   0.444458628087709   0.222250589508754   0.624941149152114   1.0000000
N2   N   0.611135376820237   0.722241421738045   0.624980844659787   1.0000000
N2   N   0.944414053439544   0.722215495988680   0.625008948551643   1.0000000
N2   N   0.777796621501722   0.222203378498279   0.625031297569663   1.0000000
N2   N   0.111098309570390   0.722215821451859   0.124990256854834   1.0000000
N2   N   0.444468109215800   0.722215495988680   0.124991051448358   1.0000000
N2   N   0.277758578261955   0.222227288415521   0.125019155340214   1.0000000
N2   N   0.777772711584480   0.722241421738045   0.125019155340214   1.0000000
N2   N   0.611135376820237   0.222227288415521   0.125019155340214   1.0000000
N2   N   0.944441540569835   0.222216414473005   0.124960913149879   1.0000000
N2   N   0.111103011723950   0.388884355154893   0.625024200512952   1.0000000
N2   N   0.277784178548141   0.888901690429610   0.625009743145166   1.0000000
N2   N   0.611115644845107   0.888896988276050   0.625024200512952   1.0000000
N2   N   0.444495556238542   0.388914444785935   0.624622487001809   1.0000000
N2   N   0.944448010097614   0.888896988276050   0.625024200512952   1.0000000
N2   N   0.111110964424683   0.888889035575318   0.124993637850664   1.0000000
N2   N   0.777772711584480   0.388864623179763   0.624980844659787   1.0000000
N2   N   0.444444737817306   0.888889035575318   0.124993637850664   1.0000000
N2   N   0.277758578261955   0.388864623179763   0.125019155340214   1.0000000
N2   N   0.277784504011320   0.555531890784200   0.124991051448358   1.0000000
N2   N   0.611085555214065   0.388914444785935   0.125377512998191   1.0000000
N2   N   0.777796621501722   0.888926576336771   0.124968702430337   1.0000000
N2   N   0.944448010097614   0.388884355154893   0.124975799487048   1.0000000
N2   N   0.111110964424683   0.555555262182694   0.625006362149336   1.0000000
N2   N   0.277784504011320   0.055585946560456   0.625008948551643   1.0000000
N2   N   0.777749410491246   0.555541371912291   0.624941149152114   1.0000000
N2   N   0.611115644845107   0.055551989902386   0.625024200512952   1.0000000
N2   N   0.944441540569835   0.055558459430165   0.625039086850121   1.0000000
N2   N   0.055641915702739   0.111196749377171   0.375000000000000   1.0000000
N2   N   0.555148555668443   0.610315407875968   0.375000000000000   1.0000000
N2   N   0.388687905143976   0.110709143621294   0.375000000000000   1.0000000
N2   N   0.889290856378706   0.611312094856024   0.375000000000000   1.0000000
N2   N   0.722221500341096   0.111196749377171   0.375000000000000   1.0000000
N2   N   0.055548597784770   0.777770745499752   0.875000000000000   1.0000000
N2   N   0.388888814381647   0.777770745499752   0.875000000000000   1.0000000
N2   N   0.222210766982572   0.277772050157954   0.875000000000000   1.0000000
N2   N   0.722227949842046   0.777789233017428   0.875000000000000   1.0000000
N2   N   0.555561766274109   0.277786316908507   0.875000000000000   1.0000000
N2   N   0.888896924696078   0.277790393945885   0.875000000000000   1.0000000
N2   N   0.222222222222221   0.777777777777779   0.375000000000000   1.0000000
N2   N   0.055641915702739   0.277778499658904   0.375000000000000   1.0000000
N2   N   0.389684592124032   0.278166481125810   0.375000000000000   1.0000000
N2   N   0.555482318155528   0.777555697357050   0.375000000000000   1.0000000
N2   N   0.888740045868186   0.777555697357050   0.375000000000000   1.0000000
N2   N   0.722038992845225   0.277961007154774   0.375000000000000   1.0000000
N2   N   0.055567770977865   0.944432229022135   0.875000000000000   1.0000000
N2   N   0.388888814381647   0.944451402215230   0.875000000000000   1.0000000
N2   N   0.222226272186954   0.444450145788397   0.875000000000000   1.0000000
N2   N   0.555555555555557   0.444444444444443   0.875000000000000   1.0000000
N2   N   0.722209606054115   0.944439864083528   0.875000000000000   1.0000000
N2   N   0.888890540268107   0.444450145788397   0.875000000000000   1.0000000
N2   N   0.055533056593665   0.444399446520658   0.375000000000000   1.0000000
N2   N   0.222144859419719   0.944303026653830   0.375000000000000   1.0000000
N2   N   0.555600553479342   0.944466943406335   0.375000000000000   1.0000000
N2   N   0.389684592124032   0.444851444331557   0.375000000000000   1.0000000
N2   N   0.888803250622829   0.944358084297261   0.375000000000000   1.0000000
N2   N   0.721833518874190   0.444851444331557   0.375000000000000   1.0000000
N2   N   0.222229254500248   0.611111185618353   0.875000000000000   1.0000000
N2   N   0.055560135916472   0.111103075303923   0.875000000000000   1.0000000
N2   N   0.555561766274109   0.611108782698939   0.875000000000000   1.0000000
N2   N   0.388901794648922   0.111136922631187   0.875000000000000   1.0000000
N2   N   0.888863077368813   0.611098205351078   0.875000000000000   1.0000000
N2   N   0.055696973346169   0.611175166099224   0.375000000000000   1.0000000
N2   N   0.722209606054115   0.111103075303923   0.875000000000000   1.0000000
N2   N   0.222444302642950   0.111259954131814   0.375000000000000   1.0000000
N2   N   0.388687905143976   0.611312094856024   0.375000000000000   1.0000000
N2   N   0.721833518874190   0.610315407875968   0.375000000000000   1.0000000
N2   N   0.555482318155528   0.111259954131814   0.375000000000000   1.0000000
N2   N   0.388901794648922   0.611098205351078   0.875000000000000   1.0000000
N2   N   0.888888888888886   0.111111111111114   0.375000000000000   1.0000000
N2   N   0.222222222222221   0.777777777777779   0.875000000000000   1.0000000
N2   N   0.055560135916472   0.277790393945885   0.875000000000000   1.0000000
N2   N   0.388891217301061   0.277786316908507   0.875000000000000   1.0000000
N2   N   0.555549854211603   0.777773727813047   0.875000000000000   1.0000000
N2   N   0.888890540268107   0.777773727813047   0.875000000000000   1.0000000
N2   N   0.722227949842046   0.277772050157954   0.875000000000000   1.0000000
N2   N   0.055696973346169   0.777855140580281   0.375000000000000   1.0000000
N2   N   0.388824833900776   0.777855140580281   0.375000000000000   1.0000000
N2   N   0.222588680976213   0.277961007154774   0.375000000000000   1.0000000
N2   N   0.722038992845225   0.777411319023787   0.375000000000000   1.0000000
N2   N   0.555148555668443   0.278166481125810   0.375000000000000   1.0000000
N2   N   0.888803250622829   0.277778499658904   0.375000000000000   1.0000000
N2   N   0.055567770977865   0.444468875289058   0.875000000000000   1.0000000
N2   N   0.222229254500248   0.944451402215230   0.875000000000000   1.0000000
N2   N   0.555531124710943   0.944432229022135   0.875000000000000   1.0000000
N2   N   0.388891217301061   0.444438233725890   0.875000000000000   1.0000000
N2   N   0.888896924696078   0.944439864083528   0.875000000000000   1.0000000
N2   N   0.055533056593665   0.944466943406335   0.375000000000000   1.0000000
N2   N   0.722213683091493   0.444438233725890   0.875000000000000   1.0000000
N2   N   0.388824833900776   0.944303026653830   0.375000000000000   1.0000000
N2   N   0.222444302642950   0.444517681844472   0.375000000000000   1.0000000
N2   N   0.222144859419719   0.611175166099224   0.375000000000000   1.0000000
N2   N   0.722221500341096   0.944358084297261   0.375000000000000   1.0000000
N2   N   0.888740045868186   0.444517681844472   0.375000000000000   1.0000000
N2   N   0.055548597784770   0.611111185618353   0.875000000000000   1.0000000
N2   N   0.222226272186954   0.111109459731892   0.875000000000000   1.0000000
N2   N   0.722213683091493   0.611108782698939   0.875000000000000   1.0000000
N2   N   0.555549854211603   0.111109459731892   0.875000000000000   1.0000000
N2   N   0.888888888888886   0.111111111111114   0.875000000000000   1.0000000
B2   B   0.111182210339636   0.055605142640894   0.375000000000000   1.0000000
B2   B   0.612614877064037   0.558563087461403   0.375000000000000   1.0000000
B2   B   0.444141114457390   0.055172286091942   0.375000000000000   1.0000000
B2   B   0.944827713908058   0.555858885542610   0.375000000000000   1.0000000
B2   B   0.777805667852661   0.055569500592998   0.375000000000000   1.0000000
B2   B   0.111115814190586   0.722224573761957   0.875000000000000   1.0000000
B2   B   0.444469325382384   0.722216789246111   0.875000000000000   1.0000000
B2   B   0.277747782681559   0.222196790829977   0.875000000000000   1.0000000
B2   B   0.777803209170023   0.722252217318441   0.875000000000000   1.0000000
B2   B   0.611115674815090   0.222196790829977   0.875000000000000   1.0000000
B2   B   0.944444799736825   0.222222932806985   0.875000000000000   1.0000000
B2   B   0.277714708069644   0.722285291930356   0.375000000000000   1.0000000
B2   B   0.111223653636815   0.222278493485072   0.375000000000000   1.0000000
B2   B   0.443944007033669   0.221221347400674   0.375000000000000   1.0000000
B2   B   0.610950574908618   0.722162643602121   0.375000000000000   1.0000000
B2   B   0.944827713908058   0.722302161698783   0.375000000000000   1.0000000
B2   B   0.777721506514928   0.222278493485072   0.375000000000000   1.0000000
B2   B   0.111118777127504   0.888881222872496   0.875000000000000   1.0000000
B2   B   0.444429112411663   0.888881222872496   0.875000000000000   1.0000000
B2   B   0.277747782681559   0.388884325184910   0.875000000000000   1.0000000
B2   B   0.611109768565291   0.388890231434709   0.875000000000000   1.0000000
B2   B   0.777783781898613   0.888900897130556   0.875000000000000   1.0000000
B2   B   0.944452543490550   0.388923484359306   0.875000000000000   1.0000000
B2   B   0.111182210339636   0.388910401032070   0.375000000000000   1.0000000
B2   B   0.277714708069644   0.888762749472617   0.375000000000000   1.0000000
B2   B   0.611089598967930   0.888817789660365   0.375000000000000   1.0000000
B2   B   0.441436912538598   0.387385122935963   0.375000000000000   1.0000000
B2   B   0.944394857359106   0.888817789660365   0.375000000000000   1.0000000
B2   B   0.777878735360174   0.389049425091382   0.375000000000000   1.0000000
B2   B   0.277783210753889   0.555530674617616   0.875000000000000   1.0000000
B2   B   0.111137607535427   0.055547456509450   0.875000000000000   1.0000000
B2   B   0.611109768565291   0.555552870463910   0.875000000000000   1.0000000
B2   B   0.444469325382384   0.055585869469609   0.875000000000000   1.0000000
B2   B   0.944414130530391   0.555530674617616   0.875000000000000   1.0000000
B2   B   0.111142277541671   0.555617888416671   0.375000000000000   1.0000000
B2   B   0.777777067193015   0.055555200263175   0.875000000000000   1.0000000
B2   B   0.277697838301217   0.055172286091942   0.375000000000000   1.0000000
B2   B   0.443944007033669   0.556055992966331   0.375000000000000   1.0000000
B2   B   0.778778652599326   0.556055992966331   0.375000000000000   1.0000000
B2   B   0.611089598967930   0.055605142640894   0.375000000000000   1.0000000
B2   B   0.444452247863154   0.555547752136846   0.875000000000000   1.0000000
B2   B   0.944430499407002   0.055569500592998   0.375000000000000   1.0000000
B2   B   0.277775426238043   0.722224573761957   0.875000000000000   1.0000000
B2   B   0.111099102869444   0.222216218101386   0.875000000000000   1.0000000
B2   B   0.444452247863154   0.222237829059643   0.875000000000000   1.0000000
B2   B   0.611115674815090   0.722252217318441   0.875000000000000   1.0000000
B2   B   0.944414130530391   0.722216789246111   0.875000000000000   1.0000000
B2   B   0.777783781898613   0.222216218101386   0.875000000000000   1.0000000
B2   B   0.111237250527382   0.722285291930356   0.375000000000000   1.0000000
B2   B   0.444141114457390   0.722302161698783   0.375000000000000   1.0000000
B2   B   0.277837356397879   0.222121264639826   0.375000000000000   1.0000000
B2   B   0.777878735360174   0.722162643602121   0.375000000000000   1.0000000
B2   B   0.610950574908618   0.222121264639826   0.375000000000000   1.0000000
B2   B   0.944430499407002   0.222194332147339   0.375000000000000   1.0000000
B2   B   0.111137607535427   0.388923484359306   0.875000000000000   1.0000000
B2   B   0.277775426238043   0.888884185809414   0.875000000000000   1.0000000
B2   B   0.611076515640695   0.888862392464573   0.875000000000000   1.0000000
B2   B   0.444447129536090   0.388890231434709   0.875000000000000   1.0000000
B2   B   0.944452543490550   0.888862392464573   0.875000000000000   1.0000000
B2   B   0.111142277541671   0.888857722458329   0.375000000000000   1.0000000
B2   B   0.777803209170023   0.388884325184910   0.875000000000000   1.0000000
B2   B   0.444382111583329   0.888857722458329   0.375000000000000   1.0000000
B2   B   0.277837356397879   0.389049425091382   0.375000000000000   1.0000000
B2   B   0.277697838301217   0.555858885542610   0.375000000000000   1.0000000
B2   B   0.612614877064037   0.387385122935963   0.375000000000000   1.0000000
B2   B   0.777721506514928   0.888776346363185   0.375000000000000   1.0000000
B2   B   0.944394857359106   0.388910401032070   0.375000000000000   1.0000000
B2   B   0.111118777127504   0.555570887588337   0.875000000000000   1.0000000
B2   B   0.277783210753889   0.055585869469609   0.875000000000000   1.0000000
B2   B   0.777762170940357   0.555547752136846   0.875000000000000   1.0000000
B2   B   0.611076515640695   0.055547456509450   0.875000000000000   1.0000000
B2   B   0.944444799736825   0.055555200263175   0.875000000000000   1.0000000
B2   B   0.055545996919755   0.111128212265456   0.125059380813023   1.0000000
B2   B   0.555521609367573   0.611155882857109   0.125184511765166   1.0000000
B2   B   0.388891527904977   0.111116389143298   0.125151717362126   1.0000000
B2   B   0.888883610856702   0.611108472095022   0.125151717362126   1.0000000
B2   B   0.722248882012365   0.111128212265456   0.125059380813023   1.0000000
B2   B   0.055549117268238   0.777788460577402   0.624872008060968   1.0000000
B2   B   0.388906009975828   0.777788460577402   0.624872008060968   1.0000000
B2   B   0.222178709256852   0.277756021295094   0.624942727653853   1.0000000
B2   B   0.722243978704906   0.777821290743148   0.624942727653853   1.0000000
B2   B   0.555521609367573   0.277699059843799   0.624815488234834   1.0000000
B2   B   0.888871787734544   0.277751117987635   0.624940619186977   1.0000000
B2   B   0.222222222222221   0.777777777777779   0.125133850016436   1.0000000
B2   B   0.055545996919755   0.277751117987635   0.125059380813023   1.0000000
B2   B   0.388844117142891   0.277699059843799   0.125184511765166   1.0000000
B2   B   0.555577320392417   0.777789662531897   0.125080681573442   1.0000000
B2   B   0.888879008806144   0.777789662531897   0.125080681573442   1.0000000
B2   B   0.722243978704906   0.277756021295094   0.125057272346147   1.0000000
B2   B   0.055550728573087   0.944449271426913   0.624915971914600   1.0000000
B2   B   0.388906009975828   0.944450882731762   0.624872008060968   1.0000000
B2   B   0.222210337468103   0.444422679607582   0.624919318426558   1.0000000
B2   B   0.555555555555557   0.444444444444443   0.625517928488918   1.0000000
B2   B   0.722248882012365   0.944454003080246   0.624940619186977   1.0000000
B2   B   0.888879008806144   0.444422679607582   0.624919318426558   1.0000000
B2   B   0.055550728573087   0.444434790479503   0.125084028085400   1.0000000
B2   B   0.222211539422598   0.944450882731762   0.125127991939032   1.0000000
B2   B   0.555565209520497   0.944449271426913   0.125084028085400   1.0000000
B2   B   0.388844117142891   0.444478390632427   0.125184511765166   1.0000000
B2   B   0.888871787734544   0.944454003080246   0.125059380813023   1.0000000
B2   B   0.722300940156201   0.444478390632427   0.125184511765166   1.0000000
B2   B   0.222211539422598   0.611093990024172   0.624872008060968   1.0000000
B2   B   0.055545996919755   0.111128212265456   0.624940619186977   1.0000000
B2   B   0.555521609367573   0.611155882857109   0.624815488234834   1.0000000
B2   B   0.388891527904977   0.111116389143298   0.624848282637874   1.0000000
B2   B   0.888883610856702   0.611108472095022   0.624848282637874   1.0000000
B2   B   0.055549117268238   0.611093990024172   0.125127991939032   1.0000000
B2   B   0.722248882012365   0.111128212265456   0.624940619186977   1.0000000
B2   B   0.222210337468103   0.111120991193857   0.125080681573442   1.0000000
B2   B   0.388891527904977   0.611108472095022   0.125151717362126   1.0000000
B2   B   0.722300940156201   0.611155882857109   0.125184511765166   1.0000000
B2   B   0.555577320392417   0.111120991193857   0.125080681573442   1.0000000
B2   B   0.388891527904977   0.611108472095022   0.624848282637874   1.0000000
B2   B   0.888888888888886   0.111111111111114   0.125072870405197   1.0000000
B2   B   0.222222222222221   0.777777777777779   0.624866149983564   1.0000000
B2   B   0.055545996919755   0.277751117987635   0.624940619186977   1.0000000
B2   B   0.388844117142891   0.277699059843799   0.624815488234834   1.0000000
B2   B   0.555577320392417   0.777789662531897   0.624919318426558   1.0000000
B2   B   0.888879008806144   0.777789662531897   0.624919318426558   1.0000000
B2   B   0.722243978704906   0.277756021295094   0.624942727653853   1.0000000
B2   B   0.055549117268238   0.777788460577402   0.125127991939032   1.0000000
B2   B   0.388906009975828   0.777788460577402   0.125127991939032   1.0000000
B2   B   0.222178709256852   0.277756021295094   0.125057272346147   1.0000000
B2   B   0.722243978704906   0.777821290743148   0.125057272346147   1.0000000
B2   B   0.555521609367573   0.277699059843799   0.125184511765166   1.0000000
B2   B   0.888871787734544   0.277751117987635   0.125059380813023   1.0000000
B2   B   0.055550728573087   0.444434790479503   0.624915971914600   1.0000000
B2   B   0.222211539422598   0.944450882731762   0.624872008060968   1.0000000
B2   B   0.555565209520497   0.944449271426913   0.624915971914600   1.0000000
B2   B   0.388844117142891   0.444478390632427   0.624815488234834   1.0000000
B2   B   0.888871787734544   0.944454003080246   0.624940619186977   1.0000000
B2   B   0.055550728573087   0.944449271426913   0.125084028085400   1.0000000
B2   B   0.722300940156201   0.444478390632427   0.624815488234834   1.0000000
B2   B   0.388906009975828   0.944450882731762   0.125127991939032   1.0000000
B2   B   0.222210337468103   0.444422679607582   0.125080681573442   1.0000000
B2   B   0.222211539422598   0.611093990024172   0.125127991939032   1.0000000
B2   B   0.555555555555557   0.444444444444443   0.124482071511082   1.0000000
B2   B   0.722248882012365   0.944454003080246   0.125059380813023   1.0000000
B2   B   0.888879008806144   0.444422679607582   0.125080681573442   1.0000000
B2   B   0.055549117268238   0.611093990024172   0.624872008060968   1.0000000
B2   B   0.222210337468103   0.111120991193857   0.624919318426558   1.0000000
B2   B   0.722300940156201   0.611155882857109   0.624815488234834   1.0000000
B2   B   0.555577320392417   0.111120991193857   0.624919318426558   1.0000000
B2   B   0.888888888888886   0.111111111111114   0.624927129594803   1.0000000


