data_1
_audit_creation_method   'vasp2cif'
_cell_length_a    17.52789999999977
_cell_length_b    17.52789999999977
_cell_length_c    15.0
_cell_angle_alpha    90.0
_cell_angle_beta    90.0
_cell_angle_gamma    119.99999999999916

_symmetry_space_group_name_H-M    'P 1'
loop_
_atom_site_label
_atom_site_type_symbol
_atom_site_fract_x
_atom_site_fract_y
_atom_site_fract_z
_atom_site_occupancy
B2   B   0.906141013196163   0.952715171579183   0.110954955473268   1.0000000
B2   B   0.904167454516098   0.094155658078348   0.111050917022288   1.0000000
B2   B   0.903572199489407   0.236872750142659   0.111089499177564   1.0000000
B2   B   0.903781765855029   0.380134063768968   0.111080596060255   1.0000000
B2   B   0.905718615218929   0.523840096197795   0.111092898816219   1.0000000
B2   B   0.906623445668837   0.667427732192572   0.111160878091287   1.0000000
B2   B   0.905711570634846   0.809062667893533   0.111051198382972   1.0000000
B2   B   0.048854005452497   0.953073201021652   0.110858577728973   1.0000000
B2   B   0.048461899697211   0.095743865096388   0.110989984266954   1.0000000
B2   B   0.046652814186606   0.237142763293390   0.111040649516511   1.0000000
B2   B   0.046071225877911   0.379875278313937   0.111105462497668   1.0000000
B2   B   0.046877140224037   0.523461675702832   0.111170545172890   1.0000000
B2   B   0.048329363989825   0.667054437748043   0.111051423594124   1.0000000
B2   B   0.049096917788081   0.810366005204340   0.111033212788843   1.0000000
B2   B   0.191737786797285   0.953469755052703   0.110960626640680   1.0000000
B2   B   0.192094029906260   0.097046310633527   0.111454792475659   1.0000000
B2   B   0.191156260737941   0.239318657851023   0.111686585188699   1.0000000
B2   B   0.188374438960567   0.379696366400627   0.110239121666101   1.0000000
B2   B   0.187867257519805   0.522934159784752   0.110863603027842   1.0000000
B2   B   0.190067283107869   0.666560058573441   0.111157938301964   1.0000000
B2   B   0.191380566461273   0.810060557719058   0.110995835472805   1.0000000
B2   B   0.334160965053456   0.952890026389954   0.110940007201644   1.0000000
B2   B   0.334326279132767   0.096746267731223   0.111327924313549   1.0000000
B2   B   0.335689611452672   0.241433144821159   0.113698043744136   1.0000000
B2   B   0.334104966142462   0.384064582030061   0.110184641677873   1.0000000
B2   B   0.327231212801021   0.521902382081124   0.107465292310845   1.0000000
B2   B   0.331547054216702   0.665422160937530   0.111117740169992   1.0000000
B2   B   0.333666099762310   0.809021599201747   0.111174677841246   1.0000000
B2   B   0.476228044844421   0.950708044165032   0.111001386612747   1.0000000
B2   B   0.476473462624705   0.096531328566107   0.110765537213208   1.0000000
B2   B   0.476157957625920   0.242448638014590   0.110574220506375   1.0000000
B2   B   0.469966134488760   0.653352542404762   0.111963330215339   1.0000000
B2   B   0.475482375356427   0.803933359063822   0.111515969732359   1.0000000
B2   B   0.618071965142560   0.949911871276770   0.111040057267996   1.0000000
B2   B   0.618359654895706   0.094294826697154   0.111060512492898   1.0000000
B2   B   0.618588378323715   0.238570311126042   0.110439984360734   1.0000000
B2   B   0.618430833932430   0.382912100911631   0.109836566082254   1.0000000
B2   B   0.644750630807814   0.674887084284519   0.112168355208753   1.0000000
B2   B   0.617583502148831   0.805888701849794   0.111671940819415   1.0000000
B2   B   0.761239665326482   0.950689777731172   0.111023696432488   1.0000000
B2   B   0.760809166136216   0.093691492655245   0.111094051086556   1.0000000
B2   B   0.760890039245209   0.237182717576744   0.111141222651220   1.0000000
B2   B   0.761388181196372   0.380709392666957   0.110800059955591   1.0000000
B2   B   0.765609717828821   0.525510155315467   0.111201392420790   1.0000000
B2   B   0.760623060838557   0.662440792304651   0.111629819348603   1.0000000
B2   B   0.765656048053035   0.810649503340196   0.111188894965455   1.0000000
C2   C   0.479080072867755   0.391108197831892   0.111481623702671   1.0000000
C2   C   0.471558222206687   0.539455025372860   0.110061614641662   1.0000000
C2   C   0.507512709519522   0.483362645341458   0.111723988001970   1.0000000
N2   N   0.953124187660614   0.904653902140393   0.110918261426066   1.0000000
N2   N   0.953028252922697   0.047650495846092   0.110955500837106   1.0000000
N2   N   0.951473348435663   0.189316484131280   0.111038858172189   1.0000000
N2   N   0.951124376408922   0.332160589291794   0.111053554264359   1.0000000
N2   N   0.952125140326837   0.475523178441364   0.111025536369885   1.0000000
N2   N   0.953341932558555   0.619253582842941   0.111071846182417   1.0000000
N2   N   0.953829793897412   0.762478513464995   0.111075120240705   1.0000000
N2   N   0.096602976088027   0.905736422186855   0.110924469905570   1.0000000
N2   N   0.096703791260496   0.048800248740849   0.110843658796982   1.0000000
N2   N   0.095998873848800   0.191105109796395   0.111142787324676   1.0000000
N2   N   0.093896043689162   0.332208380810704   0.110934989638500   1.0000000
N2   N   0.093645532684115   0.475227081078941   0.111299218251704   1.0000000
N2   N   0.095242744263113   0.618873771853621   0.111060913741837   1.0000000
N2   N   0.096315732817092   0.762458958706703   0.111019714109692   1.0000000
N2   N   0.239162652487355   0.905549697731866   0.110943812871717   1.0000000
N2   N   0.239464776357469   0.049292174339540   0.111145713819386   1.0000000
N2   N   0.240516292170816   0.193578682333244   0.112579509897451   1.0000000
N2   N   0.239226962491359   0.334967000180198   0.110740070394314   1.0000000
N2   N   0.234390497501894   0.474372654549144   0.109484262195867   1.0000000
N2   N   0.237059288086954   0.618130578374350   0.111153665991817   1.0000000
N2   N   0.238684146917398   0.761837282847060   0.111051898813393   1.0000000
N2   N   0.381321065206934   0.904228602205707   0.110987855546512   1.0000000
N2   N   0.381561465744477   0.048755350612729   0.110892396998464   1.0000000
N2   N   0.381922369202867   0.193312050187872   0.112036707015750   1.0000000
N2   N   0.385209900080924   0.339642932059719   0.114905309510403   1.0000000
N2   N   0.379167734447235   0.479371747310964   0.104608441271860   1.0000000
N2   N   0.377860831983074   0.615644429668076   0.110342319012188   1.0000000
N2   N   0.380851645563042   0.759829780984526   0.111423907742166   1.0000000
N2   N   0.522934420811506   0.900354974679795   0.111067208379466   1.0000000
N2   N   0.523246238902155   0.046960764945376   0.110962323916587   1.0000000
N2   N   0.523313331702314   0.193428352291682   0.110299759060968   1.0000000
N2   N   0.522358548276853   0.341491668391691   0.109417655424412   1.0000000
N2   N   0.522199278468528   0.750875153482549   0.112104744879940   1.0000000
N2   N   0.665014851990286   0.900995484341717   0.111102932351975   1.0000000
N2   N   0.665324394079424   0.045430427382782   0.111015521223978   1.0000000
N2   N   0.665466693453777   0.189850580257329   0.111042176886404   1.0000000
N2   N   0.665402893267289   0.333573631414085   0.110082387811391   1.0000000
N2   N   0.673665481637586   0.473372094545567   0.111093946979616   1.0000000
N2   N   0.662381661063386   0.610766962751860   0.112307157295772   1.0000000
N2   N   0.668328667008700   0.761806777242075   0.111623201329647   1.0000000
N2   N   0.810467373615457   0.904566688689217   0.110960885080180   1.0000000
N2   N   0.808453579503223   0.045787299538975   0.111037793378541   1.0000000
N2   N   0.808219298121386   0.189008984251628   0.111131646456705   1.0000000
N2   N   0.808428409534344   0.332433692218270   0.111080347080669   1.0000000
N2   N   0.810870922784051   0.475808904829278   0.111084891106961   1.0000000
N2   N   0.811614267857232   0.619642563891930   0.111281133608489   1.0000000
N2   N   0.809320220318378   0.759900680962776   0.111170970465458   1.0000000


