data_1
_audit_creation_method   'vasp2cif'
_cell_length_a    14.93631414619966
_cell_length_b    14.936314146199727
_cell_length_c    13.341276283792837
_cell_angle_alpha    90.0
_cell_angle_beta    90.0
_cell_angle_gamma    119.99999999999984

_symmetry_space_group_name_H-M    'P 1'
loop_
_atom_site_label
_atom_site_type_symbol
_atom_site_fract_x
_atom_site_fract_y
_atom_site_fract_z
_atom_site_occupancy
Ga2   Ga   0.444444444444443   0.388888888888886   0.375000000000000   1.0000000
N2   N   0.111097947439966   0.055544311523741   0.122636527654266   1.0000000
N2   N   0.611124831063908   0.555572710890935   0.123376683706659   1.0000000
N2   N   0.444446364083795   0.055544311523741   0.122636527654265   1.0000000
N2   N   0.944448105942305   0.555557347260390   0.122880966011768   1.0000000
N2   N   0.777777777777779   0.055555555555557   0.122749130275567   1.0000000
N2   N   0.111111111111114   0.722222222222221   0.626933808119836   1.0000000
N2   N   0.444446364083795   0.722235385893380   0.627363472345720   1.0000000
N2   N   0.277760622442421   0.222208502269449   0.626623316293329   1.0000000
N2   N   0.777789021809536   0.722235385893380   0.627363472345744   1.0000000
N2   N   0.611114696996204   0.222218636337148   0.627298482034586   1.0000000
N2   N   0.944441171384581   0.222221431129414   0.627327185494811   1.0000000
N2   N   0.277775986073027   0.722224092015320   0.122880966011768   1.0000000
N2   N   0.111103939340962   0.222218636337148   0.122701517965437   1.0000000
N2   N   0.444447879827030   0.222208502269449   0.123376683706659   1.0000000
N2   N   0.611114696996204   0.722229393992342   0.122701517965437   1.0000000
N2   N   0.944448105942305   0.722224092015320   0.122880966011768   1.0000000
N2   N   0.777780259744845   0.222221431129414   0.122672814505204   1.0000000
N2   N   0.111109241318053   0.888885227391024   0.627119033988280   1.0000000
N2   N   0.444446081883863   0.888889707608601   0.627253319619062   1.0000000
N2   N   0.277760622442421   0.388885453506299   0.626623316293329   1.0000000
N2   N   0.611124831063908   0.388885453506299   0.626623316293329   1.0000000
N2   N   0.777780259744845   0.888892161948748   0.627327185494811   1.0000000
N2   N   0.944443625724727   0.388887251449466   0.627253319619062   1.0000000
N2   N   0.111097947439971   0.388886969249533   0.122636527654266   1.0000000
N2   N   0.277775986073027   0.888885227391024   0.122880966011773   1.0000000
N2   N   0.611111902203936   0.888892161948748   0.122672814505204   1.0000000
N2   N   0.444444444444443   0.388888888888886   0.127217614606561   1.0000000
N2   N   0.944443625724727   0.888889707608601   0.122746680380952   1.0000000
N2   N   0.777789021809536   0.388886969249533   0.122636527654266   1.0000000
N2   N   0.277773568489817   0.555559764843518   0.627196528597937   1.0000000
N2   N   0.111097947439966   0.055544311523741   0.627363472345720   1.0000000
N2   N   0.611124831063908   0.555572710890935   0.626623316293329   1.0000000
N2   N   0.444446364083795   0.055544311523741   0.627363472345720   1.0000000
N2   N   0.944448105942305   0.555557347260390   0.627119033988280   1.0000000
N2   N   0.111109241318053   0.555557347260390   0.122880966011773   1.0000000
N2   N   0.777777777777779   0.055555555555557   0.627250869724388   1.0000000
N2   N   0.277773568489817   0.055547136979660   0.122803471402059   1.0000000
N2   N   0.444447879827030   0.555572710890935   0.123376683706662   1.0000000
N2   N   0.777786196353702   0.555559764843518   0.122803471402059   1.0000000
N2   N   0.611111902203936   0.055553073588519   0.122672814505204   1.0000000
N2   N   0.444447879827030   0.555572710890935   0.626623316293329   1.0000000
N2   N   0.944441171384581   0.055553073588519   0.122672814505204   1.0000000
N2   N   0.277775986073027   0.722224092015320   0.627119033988280   1.0000000
N2   N   0.111103939340962   0.222218636337148   0.627298482034586   1.0000000
N2   N   0.444447879827030   0.222208502269449   0.626623316293329   1.0000000
N2   N   0.611114696996204   0.722229393992361   0.627298482034586   1.0000000
N2   N   0.944448105942305   0.722224092015320   0.627119033988280   1.0000000
N2   N   0.777780259744811   0.222221431129414   0.627327185494811   1.0000000
N2   N   0.111111111111114   0.722222222222221   0.123066191880145   1.0000000
N2   N   0.444446364083795   0.722235385893380   0.122636527654266   1.0000000
N2   N   0.277760622442421   0.222208502269449   0.123376683706659   1.0000000
N2   N   0.777789021809536   0.722235385893380   0.122636527654266   1.0000000
N2   N   0.611114696996204   0.222218636337148   0.122701517965437   1.0000000
N2   N   0.944441171384581   0.222221431129414   0.122672814505204   1.0000000
N2   N   0.111097947439971   0.388886969249533   0.627363472345720   1.0000000
N2   N   0.277775986073027   0.888885227391024   0.627119033988280   1.0000000
N2   N   0.611111902203936   0.888892161948748   0.627327185494811   1.0000000
N2   N   0.444444444444443   0.388888888888886   0.622782385393455   1.0000000
N2   N   0.944443625724727   0.888889707608601   0.627253319619062   1.0000000
N2   N   0.111109241318053   0.888885227391024   0.122880966011773   1.0000000
N2   N   0.777789021809536   0.388886969249533   0.627363472345720   1.0000000
N2   N   0.444446081883863   0.888889707608601   0.122746680380952   1.0000000
N2   N   0.277760622442421   0.388885453506299   0.123376683706659   1.0000000
N2   N   0.277773568489817   0.555559764843518   0.122803471402059   1.0000000
N2   N   0.611124831063908   0.388885453506299   0.123376683706659   1.0000000
N2   N   0.777780259744845   0.888892161948748   0.122672814505204   1.0000000
N2   N   0.944443625724727   0.388887251449466   0.122746680380952   1.0000000
N2   N   0.111109241318053   0.555557347260390   0.627119033988280   1.0000000
N2   N   0.277773568489817   0.055547136979660   0.627196528597937   1.0000000
N2   N   0.777786196353702   0.555559764843518   0.627196528597937   1.0000000
N2   N   0.611111902203936   0.055553073588519   0.627327185494811   1.0000000
N2   N   0.944441171384581   0.055553073588519   0.627327185494811   1.0000000
N2   N   0.054463536363101   0.110373901796949   0.375000000000000   1.0000000
N2   N   0.556112633369714   0.612225266739438   0.375000000000000   1.0000000
N2   N   0.387736328244847   0.104627067125043   0.375000000000000   1.0000000
N2   N   0.891095802551082   0.612214567942285   0.375000000000000   1.0000000
N2   N   0.722417711333199   0.110915622000116   0.375000000000000   1.0000000
N2   N   0.055555019169772   0.777778314163531   0.875000000000000   1.0000000
N2   N   0.388889463343658   0.777779889875451   0.875000000000000   1.0000000
N2   N   0.222220782229546   0.277777057781468   0.875000000000000   1.0000000
N2   N   0.722225193352808   0.777781152065059   0.875000000000000   1.0000000
N2   N   0.555556275551879   0.277777057781468   0.875000000000000   1.0000000
N2   N   0.888889928059660   0.277779856119315   0.875000000000000   1.0000000
N2   N   0.221797070328180   0.777565201830780   0.375000000000000   1.0000000
N2   N   0.054463536363101   0.277422967899495   0.375000000000000   1.0000000
N2   N   0.377828189914139   0.255656379828317   0.375000000000000   1.0000000
N2   N   0.555910365433837   0.778869796970222   0.375000000000000   1.0000000
N2   N   0.890726662142741   0.779245062106834   0.375000000000000   1.0000000
N2   N   0.722959431536366   0.277422967899495   0.375000000000000   1.0000000
N2   N   0.055553443457882   0.944442906801596   0.875000000000000   1.0000000
N2   N   0.388889463343658   0.944442906801596   0.875000000000000   1.0000000
N2   N   0.222221635373727   0.444441536375861   0.875000000000000   1.0000000
N2   N   0.555543031585628   0.444438182459478   0.875000000000000   1.0000000
N2   N   0.722222559136818   0.944445118273664   0.875000000000000   1.0000000
N2   N   0.888890426531732   0.444443869989670   0.875000000000000   1.0000000
N2   N   0.054088271226505   0.444814933369230   0.375000000000000   1.0000000
N2   N   0.221118765391106   0.942237530782246   0.375000000000000   1.0000000
N2   N   0.555835991526029   0.944584662429656   0.375000000000000   1.0000000
N2   N   0.377828189914139   0.455505143419189   0.375000000000000   1.0000000
N2   N   0.888748670903673   0.944584662429656   0.375000000000000   1.0000000
N2   N   0.728706266208271   0.445597005088481   0.375000000000000   1.0000000
N2   N   0.222223090870482   0.611110242462783   0.875000000000000   1.0000000
N2   N   0.055552181268227   0.111108139980505   0.875000000000000   1.0000000
N2   N   0.555556275551879   0.611112551103736   0.875000000000000   1.0000000
N2   N   0.388891796957468   0.111113432331172   0.875000000000000   1.0000000
N2   N   0.888887151592325   0.611110242462783   0.875000000000000   1.0000000
N2   N   0.055768131502577   0.611536263005204   0.375000000000000   1.0000000
N2   N   0.722222559136818   0.111110774196505   0.875000000000000   1.0000000
N2   N   0.216890738880178   0.104627067125043   0.375000000000000   1.0000000
N2   N   0.387736328244847   0.616442594453186   0.375000000000000   1.0000000
N2   N   0.728706266208271   0.616442594453186   0.375000000000000   1.0000000
N2   N   0.555910365433837   0.110373901796949   0.375000000000000   1.0000000
N2   N   0.388891796957468   0.611111697959619   0.875000000000000   1.0000000
N2   N   0.888497910666893   0.110915622000116   0.375000000000000   1.0000000
N2   N   0.222223294993794   0.777778314163531   0.875000000000000   1.0000000
N2   N   0.055552181268227   0.277777374621068   0.875000000000000   1.0000000
N2   N   0.388895150873851   0.277790301747705   0.875000000000000   1.0000000
N2   N   0.555555958712316   0.777781152065059   0.875000000000000   1.0000000
N2   N   0.888890426531732   0.777779889875451   0.875000000000000   1.0000000
N2   N   0.722225193352808   0.277777374621068   0.875000000000000   1.0000000
N2   N   0.055768131502577   0.777565201830780   0.375000000000000   1.0000000
N2   N   0.388518399964099   0.779245062106834   0.375000000000000   1.0000000
N2   N   0.221108066593894   0.277220699963617   0.375000000000000   1.0000000
N2   N   0.722959431536366   0.778869796970222   0.375000000000000   1.0000000
N2   N   0.556112633369714   0.277220699963617   0.375000000000000   1.0000000
N2   N   0.888748670903673   0.277497341807353   0.375000000000000   1.0000000
N2   N   0.055553443457882   0.444443869989670   0.875000000000000   1.0000000
N2   N   0.222223090870482   0.944446181741003   0.875000000000000   1.0000000
N2   N   0.555553477214038   0.944443405273668   0.875000000000000   1.0000000
N2   N   0.388895150873851   0.444438182459478   0.875000000000000   1.0000000
N2   N   0.888889928059660   0.944443405273668   0.875000000000000   1.0000000
N2   N   0.054088271226505   0.942606671190588   0.375000000000000   1.0000000
N2   N   0.722219901002145   0.444441536375861   0.875000000000000   1.0000000
N2   N   0.388518399964099   0.942606671190588   0.375000000000000   1.0000000
N2   N   0.216890738880178   0.445597005088481   0.375000000000000   1.0000000
N2   N   0.221118765391106   0.612214567942285   0.375000000000000   1.0000000
N2   N   0.577676953505050   0.455505143419189   0.375000000000000   1.0000000
N2   N   0.722417711333199   0.944835422666435   0.375000000000000   1.0000000
N2   N   0.890726662142741   0.444814933369230   0.375000000000000   1.0000000
N2   N   0.055555019169772   0.611110038339563   0.875000000000000   1.0000000
N2   N   0.222221635373727   0.111113432331172   0.875000000000000   1.0000000
N2   N   0.722219901002145   0.611111697959619   0.875000000000000   1.0000000
N2   N   0.555555958712316   0.111108139980505   0.875000000000000   1.0000000
N2   N   0.888888215059665   0.111110774196505   0.875000000000000   1.0000000
B2   B   0.107640289612147   0.052333255464044   0.375000000000000   1.0000000
B2   B   0.619254443487528   0.562458861466569   0.375000000000000   1.0000000
B2   B   0.444692965851930   0.052333255464037   0.375000000000000   1.0000000
B2   B   0.945418549614714   0.555821978934262   0.375000000000000   1.0000000
B2   B   0.777777777777779   0.055555555555557   0.375000000000000   1.0000000
B2   B   0.111111111111114   0.722222222222221   0.875000000000000   1.0000000
B2   B   0.444450115191204   0.722233378658503   0.875000000000000   1.0000000
B2   B   0.277758704114381   0.222210999390787   0.875000000000000   1.0000000
B2   B   0.777783263467265   0.722233378658503   0.875000000000000   1.0000000
B2   B   0.611120439618926   0.222212893714394   0.875000000000000   1.0000000
B2   B   0.944437018076779   0.222217439426122   0.875000000000000   1.0000000
B2   B   0.277511354399057   0.722929904013777   0.375000000000000   1.0000000
B2   B   0.110079446221994   0.221706389777652   0.375000000000000   1.0000000
B2   B   0.443204417979030   0.214078889845797   0.375000000000000   1.0000000
B2   B   0.611626943555732   0.723253887111307   0.375000000000000   1.0000000
B2   B   0.945418549614714   0.722929904013777   0.375000000000000   1.0000000
B2   B   0.777923518018440   0.221753479674781   0.375000000000000   1.0000000
B2   B   0.111108603130748   0.888888761087150   0.875000000000000   1.0000000
B2   B   0.444449657293671   0.888891495313475   0.875000000000000   1.0000000
B2   B   0.277758704114381   0.388881038056869   0.875000000000000   1.0000000
B2   B   0.611122333942530   0.388881038056869   0.875000000000000   1.0000000
B2   B   0.777780421349417   0.888896315256550   0.875000000000000   1.0000000
B2   B   0.944441838019853   0.388883676039658   0.875000000000000   1.0000000
B2   B   0.107640289612147   0.388640367481399   0.375000000000000   1.0000000
B2   B   0.277511354399057   0.887914783718614   0.375000000000000   1.0000000
B2   B   0.611579853658631   0.889503371677007   0.375000000000000   1.0000000
B2   B   0.944280452046660   0.889052881286669   0.375000000000000   1.0000000
B2   B   0.781000077869263   0.388640367481399   0.375000000000000   1.0000000
B2   B   0.277775692032469   0.555557641300866   0.875000000000000   1.0000000
B2   B   0.111099954674825   0.055550069866070   0.875000000000000   1.0000000
B2   B   0.611122333942530   0.555574629218990   0.875000000000000   1.0000000
B2   B   0.444450115191204   0.055550069866070   0.875000000000000   1.0000000
B2   B   0.944444572246179   0.555553175377003   0.875000000000000   1.0000000
B2   B   0.110403429319542   0.555821978934262   0.375000000000000   1.0000000
B2   B   0.777777777777779   0.055555555555557   0.875000000000000   1.0000000
B2   B   0.276124014309433   0.052248028618893   0.375000000000000   1.0000000
B2   B   0.443204417979030   0.562458861466569   0.375000000000000   1.0000000
B2   B   0.781085304714470   0.557209319023892   0.375000000000000   1.0000000
B2   B   0.611579853658631   0.055409815314920   0.375000000000000   1.0000000
B2   B   0.444452295276459   0.555574629218990   0.875000000000000   1.0000000
B2   B   0.943829961656322   0.055409815314920   0.375000000000000   1.0000000
B2   B   0.277780157956367   0.722224730202614   0.875000000000000   1.0000000
B2   B   0.111092454095437   0.222212893714394   0.875000000000000   1.0000000
B2   B   0.444452295276459   0.222210999390787   0.875000000000000   1.0000000
B2   B   0.611120439618926   0.722240879237939   0.875000000000000   1.0000000
B2   B   0.944444572246179   0.722224730202614   0.875000000000000   1.0000000
B2   B   0.777780421349417   0.222217439426122   0.875000000000000   1.0000000
B2   B   0.111111111111114   0.722222222222221   0.375000000000000   1.0000000
B2   B   0.444692965851930   0.725693043721206   0.375000000000000   1.0000000
B2   B   0.270874471866774   0.214078889845797   0.375000000000000   1.0000000
B2   B   0.781000077869297   0.725693043721206   0.375000000000000   1.0000000
B2   B   0.611626943555732   0.221706389777651   0.375000000000000   1.0000000
B2   B   0.943829961656322   0.221753479674781   0.375000000000000   1.0000000
B2   B   0.111099954674825   0.388883218142124   0.875000000000000   1.0000000
B2   B   0.277780157956367   0.888888761087150   0.875000000000000   1.0000000
B2   B   0.611115893907213   0.888896315256550   0.875000000000000   1.0000000
B2   B   0.444444444444443   0.388888888888886   0.875000000000000   1.0000000
B2   B   0.944441838019853   0.888891495313475   0.875000000000000   1.0000000
B2   B   0.110403429319551   0.887914783718614   0.375000000000000   1.0000000
B2   B   0.777783263467265   0.388883218142124   0.875000000000000   1.0000000
B2   B   0.444772429239986   0.889052881286669   0.375000000000000   1.0000000
B2   B   0.270874471866774   0.390128915354299   0.375000000000000   1.0000000
B2   B   0.276124014309433   0.557209319023892   0.375000000000000   1.0000000
B2   B   0.619254443487528   0.390128915354299   0.375000000000000   1.0000000
B2   B   0.777923518018384   0.889503371677007   0.375000000000000   1.0000000
B2   B   0.944280452046660   0.388560904093343   0.375000000000000   1.0000000
B2   B   0.111108603130748   0.555553175377003   0.875000000000000   1.0000000
B2   B   0.277775692032469   0.055551384064920   0.875000000000000   1.0000000
B2   B   0.777781949268398   0.555557641300866   0.875000000000000   1.0000000
B2   B   0.611115893907213   0.055552911984004   0.875000000000000   1.0000000
B2   B   0.944437018076779   0.055552911984004   0.875000000000000   1.0000000
B2   B   0.055532676114728   0.111093102950544   0.122732329576803   1.0000000
B2   B   0.555586378487012   0.611172756974057   0.123260466549891   1.0000000
B2   B   0.388864281822328   0.111040374254200   0.122953695801310   1.0000000
B2   B   0.888913076613228   0.611123204973335   0.122902586080149   1.0000000
B2   B   0.722225139707372   0.111108193625883   0.122779277810272   1.0000000
B2   B   0.055556808966444   0.777776524366877   0.626974559767127   1.0000000
B2   B   0.388887984353867   0.777791472811322   0.627190863038401   1.0000000
B2   B   0.222160576359299   0.277746954846307   0.626739533450107   1.0000000
B2   B   0.722240230382813   0.777800657218641   0.627267670423192   1.0000000
B2   B   0.555586378487012   0.277746954846307   0.626739533450107   1.0000000
B2   B   0.888886534975064   0.277773069950167   0.627233503788580   1.0000000
B2   B   0.222219715400451   0.777776524366877   0.123025440232939   1.0000000
B2   B   0.055532676114728   0.277772906497509   0.122732329576803   1.0000000
B2   B   0.388764658245072   0.277529316490114   0.124609380033637   1.0000000
B2   B   0.555560426835807   0.777800657218641   0.122732329576803   1.0000000
B2   B   0.888903488457551   0.777791472811322   0.122809136961638   1.0000000
B2   B   0.722240230382813   0.277772906497509   0.122732329576798   1.0000000
B2   B   0.055541860521946   0.944429844875778   0.627190863038401   1.0000000
B2   B   0.388887984353867   0.944429844875778   0.627190863038401   1.0000000
B2   B   0.222176092431851   0.444469051511001   0.627046304198743   1.0000000
B2   B   0.555804016843184   0.444568675088256   0.625390619966408   1.0000000
B2   B   0.722225139707372   0.944450279414961   0.627220722189774   1.0000000
B2   B   0.888903488457551   0.444445348979462   0.627190863038401   1.0000000
B2   B   0.055541860521946   0.444445348979462   0.122809136961638   1.0000000
B2   B   0.222210128360024   0.944420256720100   0.122902586080155   1.0000000
B2   B   0.555560263383210   0.944446798358265   0.122766496211482   1.0000000
B2   B   0.388764658245072   0.444568675088256   0.124609380033637   1.0000000
B2   B   0.888886534975064   0.944446798358265   0.122766496211482   1.0000000
B2   B   0.722292959079139   0.444469051511001   0.122953695801317   1.0000000
B2   B   0.222210128360024   0.611123204973335   0.627097413919863   1.0000000
B2   B   0.055532676114728   0.111093102950544   0.627267670423192   1.0000000
B2   B   0.555586378487012   0.611172756974057   0.626739533450107   1.0000000
B2   B   0.388864281822328   0.111040374254200   0.627046304198743   1.0000000
B2   B   0.888913076613228   0.611123204973335   0.627097413919863   1.0000000
B2   B   0.055556808966444   0.611113617932821   0.123025440232942   1.0000000
B2   B   0.722225139707372   0.111108193625883   0.627220722189774   1.0000000
B2   B   0.222176092431851   0.111040374254200   0.122953695801317   1.0000000
B2   B   0.388864281822328   0.611157240901469   0.122953695801310   1.0000000
B2   B   0.722292959079139   0.611157240901469   0.122953695801310   1.0000000
B2   B   0.555560426835807   0.111093102950544   0.122732329576803   1.0000000
B2   B   0.388864281822328   0.611157240901469   0.627046304198743   1.0000000
B2   B   0.888883053918368   0.111108193625883   0.122779277810277   1.0000000
B2   B   0.222219715400451   0.777776524366877   0.626974559767127   1.0000000
B2   B   0.055532676114728   0.277772906497509   0.627267670423192   1.0000000
B2   B   0.388764658245072   0.277529316490114   0.625390619966408   1.0000000
B2   B   0.555560426835807   0.777800657218641   0.627267670423192   1.0000000
B2   B   0.888903488457551   0.777791472811322   0.627190863038401   1.0000000
B2   B   0.722240230382813   0.277772906497509   0.627267670423192   1.0000000
B2   B   0.055556808966444   0.777776524366877   0.123025440232942   1.0000000
B2   B   0.388887984353867   0.777791472811322   0.122809136961638   1.0000000
B2   B   0.222160576359299   0.277746954846307   0.123260466549891   1.0000000
B2   B   0.722240230382813   0.777800657218641   0.122732329576802   1.0000000
B2   B   0.555586378487012   0.277746954846307   0.123260466549891   1.0000000
B2   B   0.888886534975064   0.277773069950167   0.122766496211482   1.0000000
B2   B   0.055541860521946   0.444445348979462   0.627190863038401   1.0000000
B2   B   0.222210128360024   0.944420256720100   0.627097413919844   1.0000000
B2   B   0.555560263383210   0.944446798358265   0.627233503788580   1.0000000
B2   B   0.388764658245072   0.444568675088256   0.625390619966408   1.0000000
B2   B   0.888886534975064   0.944446798358265   0.627233503788580   1.0000000
B2   B   0.055541860521946   0.944429844875778   0.122809136961638   1.0000000
B2   B   0.722292959079139   0.444469051511001   0.627046304198743   1.0000000
B2   B   0.388887984353867   0.944429844875778   0.122809136961638   1.0000000
B2   B   0.222176092431851   0.444469051511001   0.122953695801313   1.0000000
B2   B   0.222210128360024   0.611123204973335   0.122902586080149   1.0000000
B2   B   0.555804016843184   0.444568675088256   0.124609380033638   1.0000000
B2   B   0.722225139707372   0.944450279414961   0.122779277810277   1.0000000
B2   B   0.888903488457551   0.444445348979462   0.122809136961638   1.0000000
B2   B   0.055556808966444   0.611113617932821   0.626974559767127   1.0000000
B2   B   0.222176092431851   0.111040374254200   0.627046304198743   1.0000000
B2   B   0.722292959079139   0.611157240901469   0.627046304198743   1.0000000
B2   B   0.555560426835807   0.111093102950544   0.627267670423192   1.0000000
B2   B   0.888883053918368   0.111108193625883   0.627220722189774   1.0000000


