data_1
_audit_creation_method   'vasp2cif'
_cell_length_a    14.93631414619966
_cell_length_b    14.936314146199727
_cell_length_c    13.341276283792837
_cell_angle_alpha    90.0
_cell_angle_beta    90.0
_cell_angle_gamma    119.99999999999984

_symmetry_space_group_name_H-M    'P 1'
loop_
_atom_site_label
_atom_site_type_symbol
_atom_site_fract_x
_atom_site_fract_y
_atom_site_fract_z
_atom_site_occupancy
C2   C   0.393872710817263   0.440966530574862   0.375000000000000   1.0000000
C2   C   0.440622748589700   0.383568346339019   0.375000000000000   1.0000000
N2   N   0.111113425075101   0.055536479623388   0.125083480960016   1.0000000
N2   N   0.611115423488601   0.555523629063143   0.124527229578970   1.0000000
N2   N   0.444458647912378   0.055538315651301   0.125058863962438   1.0000000
N2   N   0.944459486342753   0.555534352428296   0.125056633787817   1.0000000
N2   N   0.777770851493029   0.055533254648046   0.125044780380762   1.0000000
N2   N   0.111127614815409   0.722200775978941   0.624966659471104   1.0000000
N2   N   0.444463806443995   0.722198845645057   0.625024314673368   1.0000000
N2   N   0.277781973439198   0.222202748010255   0.625205785620987   1.0000000
N2   N   0.777775231842659   0.722187878808548   0.624926914828456   1.0000000
N2   N   0.611117805804733   0.222202670915126   0.624981300452443   1.0000000
N2   N   0.944433037072193   0.222195926175977   0.624960962727991   1.0000000
N2   N   0.277797846434164   0.722196802990976   0.125032638798891   1.0000000
N2   N   0.111098717922224   0.222191315518954   0.124972642486749   1.0000000
N2   N   0.444460300616233   0.222201982075186   0.124676641007371   1.0000000
N2   N   0.611112716635707   0.722184614808915   0.125006808529036   1.0000000
N2   N   0.944454698172314   0.722203594396287   0.125072417037641   1.0000000
N2   N   0.777775498929085   0.222202808779098   0.125083282586428   1.0000000
N2   N   0.111122893177883   0.888874164178885   0.624958300548870   1.0000000
N2   N   0.444459973623710   0.888872002890974   0.624957582391044   1.0000000
N2   N   0.277761208702130   0.388840090255407   0.625681573313981   1.0000000
N2   N   0.611128591876084   0.388851827553697   0.625667462257858   1.0000000
N2   N   0.777776403658238   0.888861990303071   0.624905544478953   1.0000000
N2   N   0.944451237118231   0.388869883957978   0.624936020184893   1.0000000
N2   N   0.111112420841088   0.388859128094839   0.124992940567169   1.0000000
N2   N   0.277795981204697   0.888872518814516   0.125036115226834   1.0000000
N2   N   0.611115442700364   0.888869249577797   0.125060662198895   1.0000000
N2   N   0.444427736299843   0.388817198814370   0.123186904724784   1.0000000
N2   N   0.944447978525194   0.888869399096309   0.125065854442852   1.0000000
N2   N   0.777786117116612   0.388869730569244   0.125033875086620   1.0000000
N2   N   0.277795566128374   0.555520665622850   0.625090227062338   1.0000000
N2   N   0.111113425075101   0.055536479623388   0.624916519039977   1.0000000
N2   N   0.611115423488601   0.555523629063143   0.625472770421030   1.0000000
N2   N   0.444458647912378   0.055538315651301   0.624941136037564   1.0000000
N2   N   0.944459486342753   0.555534352428296   0.624943366212184   1.0000000
N2   N   0.111127209929391   0.555529498379482   0.125029625422849   1.0000000
N2   N   0.777770851493029   0.055533254648046   0.624955219619238   1.0000000
N2   N   0.277790847884380   0.055543222723772   0.125055529287210   1.0000000
N2   N   0.444472003263037   0.555545956362965   0.124203285834598   1.0000000
N2   N   0.777786984082417   0.555532579704221   0.124958260872110   1.0000000
N2   N   0.611112300926969   0.055537392801021   0.125063946287547   1.0000000
N2   N   0.444472003263037   0.555545956362965   0.625796714165401   1.0000000
N2   N   0.944437577501671   0.055530423445808   0.125053050080299   1.0000000
N2   N   0.277797846434164   0.722196802990976   0.624967361201109   1.0000000
N2   N   0.111098717922224   0.222191315518954   0.625027357513252   1.0000000
N2   N   0.444460300616233   0.222201982075186   0.625323358992629   1.0000000
N2   N   0.611112716635707   0.722184614808915   0.624993191470963   1.0000000
N2   N   0.944454698172314   0.722203594396287   0.624927582962358   1.0000000
N2   N   0.777775498929085   0.222202808779098   0.624916717413572   1.0000000
N2   N   0.111127614815409   0.722200775978941   0.125033340528897   1.0000000
N2   N   0.444463806443995   0.722198845645057   0.124975685326639   1.0000000
N2   N   0.277781973439198   0.222202748010255   0.124794214379014   1.0000000
N2   N   0.777775231842659   0.722187878808548   0.125073085171544   1.0000000
N2   N   0.611117805804733   0.222202670915126   0.125018699547556   1.0000000
N2   N   0.944433037072193   0.222195926175977   0.125039037272010   1.0000000
N2   N   0.111112420841088   0.388859128094839   0.625007059432832   1.0000000
N2   N   0.277795981204697   0.888872518814516   0.624963884773166   1.0000000
N2   N   0.611115442700364   0.888869249577797   0.624939337801105   1.0000000
N2   N   0.444427736299843   0.388817198814370   0.626813095275215   1.0000000
N2   N   0.944447978525194   0.888869399096309   0.624934145557149   1.0000000
N2   N   0.111122893177883   0.888874164178885   0.125041699451129   1.0000000
N2   N   0.777786117116612   0.388869730569244   0.624966124913381   1.0000000
N2   N   0.444459973623710   0.888872002890974   0.125042417608956   1.0000000
N2   N   0.277761208702130   0.388840090255407   0.124318426686020   1.0000000
N2   N   0.277795566128374   0.555520665622850   0.124909772937662   1.0000000
N2   N   0.611128591876084   0.388851827553697   0.124332537742143   1.0000000
N2   N   0.777776403658238   0.888861990303071   0.125094455521047   1.0000000
N2   N   0.944451237118231   0.388869883957978   0.125063979815109   1.0000000
N2   N   0.111127209929391   0.555529498379482   0.624970374577151   1.0000000
N2   N   0.277790847884380   0.055543222723772   0.624944470712791   1.0000000
N2   N   0.777786984082417   0.555532579704221   0.625041739127897   1.0000000
N2   N   0.611112300926969   0.055537392801021   0.624936053712452   1.0000000
N2   N   0.944437577501671   0.055530423445808   0.624946949919694   1.0000000
N2   N   0.054499961052570   0.110168044102347   0.375000000000000   1.0000000
N2   N   0.558258457690815   0.608984849908788   0.375000000000000   1.0000000
N2   N   0.388717739245514   0.111521444411409   0.375000000000000   1.0000000
N2   N   0.889954206199479   0.611639000727877   0.375000000000000   1.0000000
N2   N   0.721657100193324   0.111864584026637   0.375000000000000   1.0000000
N2   N   0.055572819859103   0.777780755773259   0.875000000000000   1.0000000
N2   N   0.388905903736237   0.777784564576602   0.875000000000000   1.0000000
N2   N   0.222237718027889   0.277778352178555   0.875000000000000   1.0000000
N2   N   0.722243789359185   0.777781889107265   0.875000000000000   1.0000000
N2   N   0.555573515771145   0.277781015934153   0.875000000000000   1.0000000
N2   N   0.888906752354355   0.277782606062683   0.875000000000000   1.0000000
N2   N   0.222774599129997   0.777656404162315   0.375000000000000   1.0000000
N2   N   0.054581820461194   0.277359635204264   0.375000000000000   1.0000000
N2   N   0.389452389946124   0.278273039432741   0.375000000000000   1.0000000
N2   N   0.556293145909555   0.776996220781003   0.375000000000000   1.0000000
N2   N   0.889385851501228   0.777811836438759   0.375000000000000   1.0000000
N2   N   0.721005590879731   0.279125314778629   0.375000000000000   1.0000000
N2   N   0.055569832227549   0.944445794988893   0.875000000000000   1.0000000
N2   N   0.388906808970033   0.944447111569342   0.875000000000000   1.0000000
N2   N   0.222237284188620   0.444451277134466   0.875000000000000   1.0000000
N2   N   0.555580138842134   0.444456720481059   0.875000000000000   1.0000000
N2   N   0.722240875338078   0.944446576954598   0.875000000000000   1.0000000
N2   N   0.888909933786222   0.444450528329943   0.875000000000000   1.0000000
N2   N   0.055009191110141   0.444277040975468   0.375000000000000   1.0000000
N2   N   0.222466438535670   0.944369714932649   0.375000000000000   1.0000000
N2   N   0.555745961094998   0.945013162651742   0.375000000000000   1.0000000
N2   N   0.888680912265896   0.944265532910211   0.375000000000000   1.0000000
N2   N   0.719403644491268   0.446126749969006   0.375000000000000   1.0000000
N2   N   0.222233681726110   0.611115799239943   0.875000000000000   1.0000000
N2   N   0.055570758846423   0.111109430061568   0.875000000000000   1.0000000
N2   N   0.555576863749440   0.611118597720091   0.875000000000000   1.0000000
N2   N   0.388903464247899   0.111108312683628   0.875000000000000   1.0000000
N2   N   0.888913519093274   0.611116840543098   0.875000000000000   1.0000000
N2   N   0.056083609822071   0.611054913366333   0.375000000000000   1.0000000
N2   N   0.722237398043896   0.111112829997813   0.875000000000000   1.0000000
N2   N   0.222219444485818   0.110856417231895   0.375000000000000   1.0000000
N2   N   0.390279870058535   0.611013157262775   0.375000000000000   1.0000000
N2   N   0.723248107362012   0.610683886229374   0.375000000000000   1.0000000
N2   N   0.555337941464035   0.113317711793206   0.375000000000000   1.0000000
N2   N   0.388903150070668   0.611119051917628   0.875000000000000   1.0000000
N2   N   0.888183790627264   0.111105184530094   0.375000000000000   1.0000000
N2   N   0.222237077275148   0.777780879682548   0.875000000000000   1.0000000
N2   N   0.055572401018726   0.277780367909774   0.875000000000000   1.0000000
N2   N   0.388903090603835   0.277776746939541   0.875000000000000   1.0000000
N2   N   0.555574614383575   0.777782189357809   0.875000000000000   1.0000000
N2   N   0.888910845738407   0.777783540258539   0.875000000000000   1.0000000
N2   N   0.722239830220676   0.277782795112377   0.875000000000000   1.0000000
N2   N   0.056186778167157   0.777904666597512   0.375000000000000   1.0000000
N2   N   0.389532187090053   0.777810214110878   0.375000000000000   1.0000000
N2   N   0.219990252242080   0.275439999447150   0.375000000000000   1.0000000
N2   N   0.723018246682642   0.777844587748394   0.375000000000000   1.0000000
N2   N   0.554484135607660   0.282888025765169   0.375000000000000   1.0000000
N2   N   0.887882363335690   0.278074961666232   0.375000000000000   1.0000000
N2   N   0.055570837029530   0.444449323870916   0.875000000000000   1.0000000
N2   N   0.222236041467868   0.944443942894505   0.875000000000000   1.0000000
N2   N   0.555572603739894   0.944448302233785   0.875000000000000   1.0000000
N2   N   0.388907201770176   0.444454798641966   0.875000000000000   1.0000000
N2   N   0.888909075375925   0.944447455354643   0.875000000000000   1.0000000
N2   N   0.055655745342471   0.944313961603330   0.375000000000000   1.0000000
N2   N   0.722247662321346   0.444454738705054   0.875000000000000   1.0000000
N2   N   0.389235486407600   0.944834144492805   0.375000000000000   1.0000000
N2   N   0.222109332107337   0.443518421723658   0.375000000000000   1.0000000
N2   N   0.222918028594287   0.610661819452655   0.375000000000000   1.0000000
N2   N   0.722117265544864   0.944587885463675   0.375000000000000   1.0000000
N2   N   0.887557791212552   0.444790591878524   0.375000000000000   1.0000000
N2   N   0.055571414802284   0.611113142154413   0.875000000000000   1.0000000
N2   N   0.222233546028401   0.111107617222690   0.875000000000000   1.0000000
N2   N   0.722246605443221   0.611118786579209   0.875000000000000   1.0000000
N2   N   0.555571396140450   0.111111890131561   0.875000000000000   1.0000000
N2   N   0.888906982090146   0.111111696358825   0.875000000000000   1.0000000
B2   B   0.110788098862811   0.055316307762693   0.375000000000000   1.0000000
B2   B   0.613887618284582   0.554930939102803   0.375000000000000   1.0000000
B2   B   0.444308444138829   0.056031447500188   0.375000000000000   1.0000000
B2   B   0.945065467071610   0.555813908503580   0.375000000000000   1.0000000
B2   B   0.777171993227681   0.055873580820428   0.375000000000000   1.0000000
B2   B   0.111129892833013   0.722219915362118   0.875000000000000   1.0000000
B2   B   0.444450139020437   0.722203739052453   0.875000000000000   1.0000000
B2   B   0.277806071586515   0.222245592169598   0.875000000000000   1.0000000
B2   B   0.777787227581977   0.722213688428836   0.875000000000000   1.0000000
B2   B   0.611119709590736   0.222234645135551   0.875000000000000   1.0000000
B2   B   0.944477041095593   0.222234309074458   0.875000000000000   1.0000000
B2   B   0.278338939822853   0.721854839205117   0.375000000000000   1.0000000
B2   B   0.109284766643015   0.220928313272872   0.375000000000000   1.0000000
B2   B   0.444063862696869   0.222194248520767   0.375000000000000   1.0000000
B2   B   0.612398013372460   0.721481502082989   0.375000000000000   1.0000000
B2   B   0.945339553172305   0.722641162865328   0.375000000000000   1.0000000
B2   B   0.776801049711019   0.223041246539345   0.375000000000000   1.0000000
B2   B   0.111128489364104   0.888891716335929   0.875000000000000   1.0000000
B2   B   0.444455105113527   0.888880363587531   0.875000000000000   1.0000000
B2   B   0.277820213359942   0.388911442907332   0.875000000000000   1.0000000
B2   B   0.611114892828733   0.388908673884765   0.875000000000000   1.0000000
B2   B   0.777791647813014   0.888883174886487   0.875000000000000   1.0000000
B2   B   0.944474183264276   0.388900138083677   0.875000000000000   1.0000000
B2   B   0.110911387770591   0.388714810764017   0.375000000000000   1.0000000
B2   B   0.278109505236299   0.888807146231714   0.375000000000000   1.0000000
B2   B   0.611078140963978   0.888663252777927   0.375000000000000   1.0000000
B2   B   0.944603780250144   0.888999183237235   0.375000000000000   1.0000000
B2   B   0.775896448589212   0.389929053335290   0.375000000000000   1.0000000
B2   B   0.277801317959251   0.555553535541535   0.875000000000000   1.0000000
B2   B   0.111134744121381   0.055566459896554   0.875000000000000   1.0000000
B2   B   0.611107162762949   0.555545105355316   0.875000000000000   1.0000000
B2   B   0.444455267697767   0.055559003364297   0.875000000000000   1.0000000
B2   B   0.944467355223349   0.555560445069639   0.875000000000000   1.0000000
B2   B   0.111691823220230   0.555415957321665   0.375000000000000   1.0000000
B2   B   0.777796500435097   0.055556593310066   0.875000000000000   1.0000000
B2   B   0.277652422940059   0.055318496293356   0.375000000000000   1.0000000
B2   B   0.447013601420553   0.556166395217546   0.375000000000000   1.0000000
B2   B   0.779652491468034   0.556634611158715   0.375000000000000   1.0000000
B2   B   0.610667748922435   0.056653189808558   0.375000000000000   1.0000000
B2   B   0.444449056875325   0.555541436978379   0.875000000000000   1.0000000
B2   B   0.943631938542517   0.055243084985147   0.375000000000000   1.0000000
B2   B   0.277793523584798   0.722213980952424   0.875000000000000   1.0000000
B2   B   0.111150187895111   0.222241569183712   0.875000000000000   1.0000000
B2   B   0.444454487945391   0.222242427227001   0.875000000000000   1.0000000
B2   B   0.611111468122339   0.722201387153964   0.875000000000000   1.0000000
B2   B   0.944462329244734   0.722222286753731   0.875000000000000   1.0000000
B2   B   0.777797128560122   0.222230767895892   0.875000000000000   1.0000000
B2   B   0.111704149027182   0.722176806189789   0.375000000000000   1.0000000
B2   B   0.444888415142393   0.721782234894438   0.375000000000000   1.0000000
B2   B   0.276227219615623   0.221625539462450   0.375000000000000   1.0000000
B2   B   0.778600048560567   0.722743076836388   0.375000000000000   1.0000000
B2   B   0.610196672427523   0.225193765530088   0.375000000000000   1.0000000
B2   B   0.943561733419781   0.222321675296541   0.375000000000000   1.0000000
B2   B   0.111151209321407   0.388904008319079   0.875000000000000   1.0000000
B2   B   0.277792395063516   0.888886796640728   0.875000000000000   1.0000000
B2   B   0.611119167941822   0.888877079754638   0.875000000000000   1.0000000
B2   B   0.444458122073505   0.388912080231621   0.875000000000000   1.0000000
B2   B   0.944462985118154   0.888891179385493   0.875000000000000   1.0000000
B2   B   0.111443521149298   0.888903894144532   0.375000000000000   1.0000000
B2   B   0.777793699632621   0.388902403675538   0.875000000000000   1.0000000
B2   B   0.444646214320129   0.888978082562024   0.375000000000000   1.0000000
B2   B   0.276452353433906   0.386133614859871   0.375000000000000   1.0000000
B2   B   0.278767172521611   0.554824138841290   0.375000000000000   1.0000000
B2   B   0.607530668141615   0.394556314207543   0.375000000000000   1.0000000
B2   B   0.777838824670435   0.889123300592024   0.375000000000000   1.0000000
B2   B   0.943613911765121   0.389182902820298   0.375000000000000   1.0000000
B2   B   0.111137280305694   0.555558243898468   0.875000000000000   1.0000000
B2   B   0.277793300997892   0.055564078686778   0.875000000000000   1.0000000
B2   B   0.777789959942020   0.555560047372231   0.875000000000000   1.0000000
B2   B   0.611122479456293   0.055554633879394   0.875000000000000   1.0000000
B2   B   0.944470901592108   0.055563361684123   0.875000000000000   1.0000000
B2   B   0.055575645739739   0.111125695906768   0.124999363632005   1.0000000
B2   B   0.555460525253374   0.610991172138619   0.124592654841533   1.0000000
B2   B   0.388916760046114   0.111130974133752   0.124905578771373   1.0000000
B2   B   0.888889760069567   0.611074860024591   0.124978381635009   1.0000000
B2   B   0.722219546889046   0.111091119913558   0.125006565187834   1.0000000
B2   B   0.055583113341279   0.777756567004484   0.624995372259962   1.0000000
B2   B   0.388910320005563   0.777722065426065   0.624969749705760   1.0000000
B2   B   0.222277724609897   0.277846717843879   0.625309334973256   1.0000000
B2   B   0.722182166373680   0.777724784035547   0.625017192155949   1.0000000
B2   B   0.555556590337942   0.277796625276273   0.625416361576436   1.0000000
B2   B   0.888907733080367   0.277767878313486   0.624984367382757   1.0000000
B2   B   0.222258059623348   0.777740052162056   0.125012119653538   1.0000000
B2   B   0.055586055423689   0.277782567372345   0.124992846820010   1.0000000
B2   B   0.388954380943188   0.277901818359121   0.124180593274535   1.0000000
B2   B   0.555528097325164   0.777715953105039   0.124993273824606   1.0000000
B2   B   0.888882715646471   0.777748177087679   0.125000345603735   1.0000000
B2   B   0.722225596426708   0.277763635066476   0.124974046345430   1.0000000
B2   B   0.055576268578089   0.944442340887832   0.624989483139182   1.0000000
B2   B   0.388908120169703   0.944417761418328   0.624982140423133   1.0000000
B2   B   0.222295410652354   0.444398328862254   0.625127329812251   1.0000000
B2   B   0.555403257145233   0.444335212954057   0.625483923412824   1.0000000
B2   B   0.722206128762520   0.944415600391738   0.624988329800255   1.0000000
B2   B   0.888905773783238   0.444420757247600   0.624986797135366   1.0000000
B2   B   0.055602193473756   0.444418402984862   0.125032456950040   1.0000000
B2   B   0.222250662527445   0.944438061771742   0.125009551228877   1.0000000
B2   B   0.555551937673521   0.944410133285155   0.125019482487846   1.0000000
B2   B   0.388926151873545   0.444381757007512   0.124567886705744   1.0000000
B2   B   0.888889345856964   0.944430733477879   0.125008263350980   1.0000000
B2   B   0.722166101457090   0.444394725739253   0.124733353745825   1.0000000
B2   B   0.222275628143544   0.611050086569394   0.624965167549237   1.0000000
B2   B   0.055575645739739   0.111125695906768   0.625000636367995   1.0000000
B2   B   0.555460525253374   0.610991172138619   0.625407345158459   1.0000000
B2   B   0.388916760046114   0.111130974133752   0.625094421228628   1.0000000
B2   B   0.888889760069567   0.611074860024591   0.625021618364991   1.0000000
B2   B   0.055595068641778   0.611076286567711   0.125020014928133   1.0000000
B2   B   0.722219546889046   0.111091119913558   0.624993434812165   1.0000000
B2   B   0.222259219073392   0.111152404842117   0.124958693335176   1.0000000
B2   B   0.388922821659441   0.611010426137886   0.124829454069947   1.0000000
B2   B   0.722138668460078   0.611023793736430   0.124770401578597   1.0000000
B2   B   0.555558995549331   0.111094325162244   0.124995555768289   1.0000000
B2   B   0.388922821659441   0.611010426137886   0.625170545930052   1.0000000
B2   B   0.888893658203880   0.111103753890312   0.125000988377116   1.0000000
B2   B   0.222258059623348   0.777740052162056   0.624987880346463   1.0000000
B2   B   0.055586055423689   0.277782567372345   0.625007153179991   1.0000000
B2   B   0.388954380943188   0.277901818359121   0.625819406725463   1.0000000
B2   B   0.555528097325164   0.777715953105039   0.625006726175393   1.0000000
B2   B   0.888882715646471   0.777748177087679   0.624999654396265   1.0000000
B2   B   0.722225596426708   0.277763635066476   0.625025953654570   1.0000000
B2   B   0.055583113341279   0.777756567004484   0.125004627740039   1.0000000
B2   B   0.388910320005563   0.777722065426065   0.125030250294240   1.0000000
B2   B   0.222277724609897   0.277846717843879   0.124690665026744   1.0000000
B2   B   0.722182166373680   0.777724784035547   0.124982807844051   1.0000000
B2   B   0.555556590337942   0.277796625276273   0.124583638423564   1.0000000
B2   B   0.888907733080367   0.277767878313486   0.125015632617243   1.0000000
B2   B   0.055602193473756   0.444418402984862   0.624967543049961   1.0000000
B2   B   0.222250662527445   0.944438061771742   0.624990448771123   1.0000000
B2   B   0.555551937673521   0.944410133285155   0.624980517512154   1.0000000
B2   B   0.388926151873545   0.444381757007512   0.625432113294255   1.0000000
B2   B   0.888889345856964   0.944430733477879   0.624991736649020   1.0000000
B2   B   0.055576268578089   0.944442340887832   0.125010516860818   1.0000000
B2   B   0.722166101457090   0.444394725739253   0.625266646254175   1.0000000
B2   B   0.388908120169703   0.944417761418328   0.125017859576875   1.0000000
B2   B   0.222295410652354   0.444398328862254   0.124872670187741   1.0000000
B2   B   0.222275628143544   0.611050086569394   0.125034832450769   1.0000000
B2   B   0.555403257145233   0.444335212954057   0.124516076587175   1.0000000
B2   B   0.722206128762520   0.944415600391738   0.125011670199746   1.0000000
B2   B   0.888905773783238   0.444420757247600   0.125013202864633   1.0000000
B2   B   0.055595068641778   0.611076286567711   0.624979985071867   1.0000000
B2   B   0.222259219073392   0.111152404842117   0.625041306664824   1.0000000
B2   B   0.722138668460078   0.611023793736430   0.625229598421411   1.0000000
B2   B   0.555558995549331   0.111094325162244   0.625004444231712   1.0000000
B2   B   0.888893658203880   0.111103753890312   0.624999011622876   1.0000000


