data_1
_audit_creation_method   'vasp2cif'
_cell_length_a    17.52789999999977
_cell_length_b    17.52789999999977
_cell_length_c    15.0
_cell_angle_alpha    90.0
_cell_angle_beta    90.0
_cell_angle_gamma    119.99999999999916

_symmetry_space_group_name_H-M    'P 1'
loop_
_atom_site_label
_atom_site_type_symbol
_atom_site_fract_x
_atom_site_fract_y
_atom_site_fract_z
_atom_site_occupancy
B2   B   0.906735232237571   0.955859200088569   0.111024038408836   1.0000000
B2   B   0.906686015131941   0.097695041199543   0.111050903238124   1.0000000
B2   B   0.905934780247736   0.239242857952401   0.111073520396032   1.0000000
B2   B   0.904107564601796   0.380865201531136   0.110981020652712   1.0000000
B2   B   0.898316376242215   0.522112291796700   0.111045631536783   1.0000000
B2   B   0.897282619186205   0.664034902990866   0.111000697095819   1.0000000
B2   B   0.903648886217282   0.811366740996075   0.111017436614785   1.0000000
B2   B   0.047793505609475   0.953883242889441   0.110985331006927   1.0000000
B2   B   0.049663167392341   0.097608916883199   0.110964770917854   1.0000000
B2   B   0.049546906916676   0.239904244905647   0.111000685589788   1.0000000
B2   B   0.047798628599218   0.381798425420799   0.111013975412055   1.0000000
B2   B   0.043929294493941   0.523415385004556   0.111074710187901   1.0000000
B2   B   0.042394378511664   0.665071755199508   0.111073185131341   1.0000000
B2   B   0.043467437900062   0.808009468727482   0.110949830099916   1.0000000
B2   B   0.187926284145527   0.951002940239701   0.110944526839888   1.0000000
B2   B   0.192117357474167   0.097020792005901   0.110863148561342   1.0000000
B2   B   0.192921745609794   0.239775042850699   0.110883318686886   1.0000000
B2   B   0.191935169999111   0.382323159612127   0.110973011867979   1.0000000
B2   B   0.188077888010992   0.524303767346098   0.111093213801907   1.0000000
B2   B   0.186939561897700   0.666007478423904   0.111135168988821   1.0000000
B2   B   0.186584825111862   0.807900836965604   0.111011156697250   1.0000000
B2   B   0.330358003002573   0.950011365875915   0.110911618844515   1.0000000
B2   B   0.331296386126699   0.092545661309572   0.110910868579205   1.0000000
B2   B   0.338113280499168   0.241137988158989   0.110931138853629   1.0000000
B2   B   0.336450339534518   0.382949064211985   0.111139549826987   1.0000000
B2   B   0.331439790989686   0.525255301715917   0.111211456386520   1.0000000
B2   B   0.331220337231631   0.667362655069518   0.111084443367606   1.0000000
B2   B   0.330347852269564   0.808582013847434   0.110957182441523   1.0000000
B2   B   0.474150134985730   0.950638548241707   0.110907484656859   1.0000000
B2   B   0.474027573123805   0.089899092956770   0.110924182534441   1.0000000
B2   B   0.473770193907613   0.228062916715411   0.110889266697020   1.0000000
B2   B   0.491021873668693   0.378560678331326   0.111482238478579   1.0000000
B2   B   0.475366744986912   0.671745871653852   0.111171071866553   1.0000000
B2   B   0.474667999207256   0.811206113577575   0.110900629220715   1.0000000
B2   B   0.618820645306389   0.953913651186826   0.110923435343342   1.0000000
B2   B   0.618401020275102   0.092910822987879   0.111012883234278   1.0000000
B2   B   0.618032661313590   0.231464809041531   0.110895015449478   1.0000000
B2   B   0.617101442853346   0.367224629530405   0.111274089335223   1.0000000
B2   B   0.626110282769930   0.679453849651968   0.110922765296562   1.0000000
B2   B   0.619817351017216   0.815212347825810   0.110958005876626   1.0000000
B2   B   0.763418942794436   0.955873646687278   0.110923284607377   1.0000000
B2   B   0.762863283403600   0.096406323966052   0.111059328945100   1.0000000
B2   B   0.762229682582189   0.237218575242115   0.110992258077965   1.0000000
B2   B   0.760737082874067   0.378483301386598   0.111017118231368   1.0000000
B2   B   0.749915220185104   0.520270537605479   0.111385637792167   1.0000000
B2   B   0.756061740225264   0.669030271942558   0.110835565340703   1.0000000
B2   B   0.764475546646658   0.815498892643627   0.110971168378435   1.0000000
As2   As   0.500669533265596   0.520881352316017   0.111197749411829   1.0000000
N2   N   0.953261477065553   0.907360014801246   0.111037196739797   1.0000000
N2   N   0.954763341448265   0.050878041357614   0.111017349581072   1.0000000
N2   N   0.954278322841323   0.192579468381082   0.111054600554292   1.0000000
N2   N   0.952720144004803   0.334127548851353   0.110994292417131   1.0000000
N2   N   0.948551019790577   0.475755833697784   0.110976237730872   1.0000000
N2   N   0.946810260681323   0.617361716636858   0.111012216933592   1.0000000
N2   N   0.948557173909073   0.760726537197526   0.110917170177644   1.0000000
N2   N   0.093027352145583   0.903952036996403   0.110932295683740   1.0000000
N2   N   0.096766060070382   0.049596981834072   0.110913201342573   1.0000000
N2   N   0.097448991377830   0.192539271183653   0.110921997598932   1.0000000
N2   N   0.096336840901826   0.334803421623613   0.110960263697878   1.0000000
N2   N   0.092863661883184   0.476717942421684   0.111040269932097   1.0000000
N2   N   0.091365201655308   0.618428864976303   0.111125927850225   1.0000000
N2   N   0.091259146989764   0.760426339168212   0.111000936503751   1.0000000
N2   N   0.235093218908691   0.903004398150642   0.110933578867714   1.0000000
N2   N   0.236557381050224   0.046266261602120   0.110894066295590   1.0000000
N2   N   0.241418570644540   0.192833960097796   0.110813002220252   1.0000000
N2   N   0.240009396436542   0.334269849356612   0.110912204805567   1.0000000
N2   N   0.235990748039471   0.477433330879546   0.111051135951975   1.0000000
N2   N   0.235508548156629   0.619460382704182   0.111113460901185   1.0000000
N2   N   0.234820405567057   0.761025610573195   0.111041952190120   1.0000000
N2   N   0.378553965021096   0.903343497668436   0.110878346246801   1.0000000
N2   N   0.378676431063100   0.044521640466728   0.110893687601870   1.0000000
N2   N   0.379625193312290   0.186880473103344   0.110883831471429   1.0000000
N2   N   0.389785897537082   0.337831887336546   0.111156009290314   1.0000000
N2   N   0.375556966990642   0.476440801562944   0.111322674790747   1.0000000
N2   N   0.379621802543298   0.621146592523384   0.111163064954698   1.0000000
N2   N   0.378845124807807   0.762476740338665   0.110931777853969   1.0000000
N2   N   0.523063364349277   0.905644665512984   0.110869285174233   1.0000000
N2   N   0.522816008376616   0.044626011399527   0.110955422519272   1.0000000
N2   N   0.522747219357497   0.183034114015670   0.110877497109410   1.0000000
N2   N   0.523483360343872   0.319187217384228   0.110992936932007   1.0000000
N2   N   0.575268842165763   0.466850095404405   0.112000818192309   1.0000000
N2   N   0.529523324555184   0.633630309625466   0.111293940562767   1.0000000
N2   N   0.523518972741532   0.766637731392127   0.110943420251820   1.0000000
N2   N   0.667945596057082   0.909471690404369   0.110861460742961   1.0000000
N2   N   0.667413754485657   0.048121258756327   0.111017831698400   1.0000000
N2   N   0.667045888576152   0.186897572000037   0.110959433087811   1.0000000
N2   N   0.667029347176434   0.324985614393982   0.110884929912591   1.0000000
N2   N   0.652880405589333   0.459347334467184   0.111879038797243   1.0000000
N2   N   0.666322858154342   0.630249485677020   0.110396865002998   1.0000000
N2   N   0.670537695776160   0.773227941672556   0.111036535600026   1.0000000
N2   N   0.812397859083698   0.910375841720717   0.110918246228410   1.0000000
N2   N   0.811502735899252   0.050602434065957   0.110992375475976   1.0000000
N2   N   0.810782790431750   0.191164366430064   0.111065360917658   1.0000000
N2   N   0.809532078698777   0.332239624163139   0.110946674118139   1.0000000
N2   N   0.802302339660455   0.473673586714070   0.111117841399907   1.0000000
N2   N   0.801836948393887   0.616543514137713   0.111088762334420   1.0000000
N2   N   0.810318661246378   0.766571225938855   0.110995701270259   1.0000000


