data_1
_audit_creation_method   'vasp2cif'
_cell_length_a    14.93631414619966
_cell_length_b    14.936314146199727
_cell_length_c    13.341276283792837
_cell_angle_alpha    90.0
_cell_angle_beta    90.0
_cell_angle_gamma    119.99999999999984

_symmetry_space_group_name_H-M    'P 1'
loop_
_atom_site_label
_atom_site_type_symbol
_atom_site_fract_x
_atom_site_fract_y
_atom_site_fract_z
_atom_site_occupancy
Sn2   Sn   0.555555555555557   0.444444444444443   0.375000000000000   1.0000000
N2   N   0.111095321754405   0.055550496525544   0.124970839990696   1.0000000
N2   N   0.611168173430855   0.555669680194966   0.120848861317280   1.0000000
N2   N   0.444450438739930   0.055565660694780   0.125156546341940   1.0000000
N2   N   0.944434339305184   0.555549561260111   0.125156546341940   1.0000000
N2   N   0.777786653454257   0.055559993393808   0.124791631664981   1.0000000
N2   N   0.111107933553483   0.722220633443395   0.625011736474589   1.0000000
N2   N   0.444450438739931   0.722218111378466   0.624843453658082   1.0000000
N2   N   0.277742184857758   0.222206861912705   0.625480387488641   1.0000000
N2   N   0.777793138087263   0.722257815142218   0.625480387488639   1.0000000
N2   N   0.611131343721580   0.222206861912706   0.625480387488639   1.0000000
N2   N   0.944440006606186   0.222213346545718   0.625208368334995   1.0000000
N2   N   0.277779366556590   0.722220633443374   0.124988263525426   1.0000000
N2   N   0.111077493187380   0.222205413260352   0.124977375142523   1.0000000
N2   N   0.444458004279604   0.222249341892532   0.124069985901162   1.0000000
N2   N   0.611131343721580   0.722257815142220   0.124519612511343   1.0000000
N2   N   0.944434339305184   0.722218111378466   0.125156546341940   1.0000000
N2   N   0.777794586739657   0.222205413260354   0.124977375142523   1.0000000
N2   N   0.111108928666139   0.888891071333853   0.625091255361704   1.0000000
N2   N   0.444448809334360   0.888891071333853   0.625091255361704   1.0000000
N2   N   0.277742184857752   0.388868656278383   0.625480387488639   1.0000000
N2   N   0.611168173430846   0.388831826569183   0.629151138682686   1.0000000
N2   N   0.777794586739657   0.888922506812592   0.625022624857443   1.0000000
N2   N   0.944449503474451   0.388878158562169   0.625029160009325   1.0000000
N2   N   0.111095321754404   0.388878158562168   0.124970839990696   1.0000000
N2   N   0.277779366556588   0.888892066446508   0.124988263525427   1.0000000
N2   N   0.611121841437761   0.888904678245607   0.124970839990696   1.0000000
N2   N   0.444330319805055   0.388831826569179   0.120848861317280   1.0000000
N2   N   0.944449503474451   0.888904678245607   0.124970839990696   1.0000000
N2   N   0.777793138087263   0.388868656278383   0.124519612511344   1.0000000
N2   N   0.277781888621521   0.555549561260109   0.624843453658082   1.0000000
N2   N   0.111095321754404   0.055550496525544   0.625029160009325   1.0000000
N2   N   0.611168173430855   0.555669680194970   0.629151138682686   1.0000000
N2   N   0.444450438739930   0.055565660694780   0.624843453658082   1.0000000
N2   N   0.944434339305184   0.555549561260109   0.624843453658082   1.0000000
N2   N   0.111108928666139   0.555551190665606   0.124908744638271   1.0000000
N2   N   0.777786653454251   0.055559993393807   0.625208368334995   1.0000000
N2   N   0.277781888621526   0.055565660694780   0.125156546341940   1.0000000
N2   N   0.444458004279603   0.555541995720421   0.124069985901159   1.0000000
N2   N   0.777750658107456   0.555541995720410   0.124069985901159   1.0000000
N2   N   0.611121841437761   0.055550496525544   0.124970839990696   1.0000000
N2   N   0.444458004279597   0.555541995720422   0.625930014098848   1.0000000
N2   N   0.944440006606186   0.055559993393808   0.124791631664981   1.0000000
N2   N   0.277779366556588   0.722220633443395   0.625011736474589   1.0000000
N2   N   0.111077493187380   0.222205413260352   0.625022624857443   1.0000000
N2   N   0.444458004279600   0.222249341892530   0.625930014098841   1.0000000
N2   N   0.611131343721580   0.722257815142218   0.625480387488639   1.0000000
N2   N   0.944434339305185   0.722218111378466   0.624843453658082   1.0000000
N2   N   0.777794586739657   0.222205413260352   0.625022624857443   1.0000000
N2   N   0.111107933553481   0.722220633443395   0.124988263525426   1.0000000
N2   N   0.444450438739931   0.722218111378465   0.125156546341940   1.0000000
N2   N   0.277742184857759   0.222206861912706   0.124519612511343   1.0000000
N2   N   0.777793138087263   0.722257815142219   0.124519612511343   1.0000000
N2   N   0.611131343721580   0.222206861912704   0.124519612511343   1.0000000
N2   N   0.944440006606181   0.222213346545718   0.124791631664981   1.0000000
N2   N   0.111095321754404   0.388878158562173   0.625029160009325   1.0000000
N2   N   0.277779366556588   0.888892066446508   0.625011736474589   1.0000000
N2   N   0.611121841437759   0.888904678245604   0.625029160009325   1.0000000
N2   N   0.444330319805054   0.388831826569179   0.629151138682682   1.0000000
N2   N   0.944449503474451   0.888904678245607   0.625029160009325   1.0000000
N2   N   0.111108928666139   0.888891071333852   0.124908744638271   1.0000000
N2   N   0.777793138087263   0.388868656278383   0.625480387488639   1.0000000
N2   N   0.444448809334364   0.888891071333853   0.124908744638271   1.0000000
N2   N   0.277742184857758   0.388868656278380   0.124519612511344   1.0000000
N2   N   0.277781888621526   0.555549561260109   0.125156546341940   1.0000000
N2   N   0.611168173430846   0.388831826569179   0.120848861317279   1.0000000
N2   N   0.777794586739657   0.888922506812591   0.124977375142524   1.0000000
N2   N   0.944449503474451   0.388878158562168   0.124970839990696   1.0000000
N2   N   0.111108928666139   0.555551190665606   0.625091255361704   1.0000000
N2   N   0.277781888621521   0.055565660694780   0.624843453658082   1.0000000
N2   N   0.777750658107456   0.555541995720422   0.625930014098841   1.0000000
N2   N   0.611121841437767   0.055550496525544   0.625029160009325   1.0000000
N2   N   0.944440006606181   0.055559993393808   0.625208368334995   1.0000000
N2   N   0.053919838577876   0.110030314913152   0.375000000000000   1.0000000
N2   N   0.556148945891021   0.624697508312147   0.375000000000000   1.0000000
N2   N   0.387242962049424   0.107819257432219   0.375000000000000   1.0000000
N2   N   0.892180742567792   0.612757037950549   0.375000000000000   1.0000000
N2   N   0.722777143001923   0.110030314913149   0.375000000000000   1.0000000
N2   N   0.055556674111001   0.777779381202155   0.875000000000000   1.0000000
N2   N   0.388889373757818   0.777779381202155   0.875000000000000   1.0000000
N2   N   0.222222939857283   0.277778136595307   0.875000000000000   1.0000000
N2   N   0.722221863404686   0.777777060142720   0.875000000000000   1.0000000
N2   N   0.555547706466866   0.277764228839681   0.875000000000000   1.0000000
N2   N   0.888889305747689   0.277779267103289   0.875000000000000   1.0000000
N2   N   0.222222222222221   0.777777777777779   0.375000000000000   1.0000000
N2   N   0.053919838577876   0.277222856998077   0.375000000000000   1.0000000
N2   N   0.375302491687807   0.264784770912187   0.375000000000000   1.0000000
N2   N   0.555016746086783   0.783235050882037   0.375000000000000   1.0000000
N2   N   0.894884971461980   0.783235050882007   0.375000000000000   1.0000000
N2   N   0.724854580091184   0.275145419908803   0.375000000000000   1.0000000
N2   N   0.055555325567386   0.944444674432608   0.875000000000000   1.0000000
N2   N   0.388889373757818   0.944443325888992   0.875000000000000   1.0000000
N2   N   0.222220332081921   0.444447222066834   0.875000000000000   1.0000000
N2   N   0.555555555555557   0.444444444444443   0.875000000000000   1.0000000
N2   N   0.722220732896745   0.944443371977845   0.875000000000000   1.0000000
N2   N   0.888893556651566   0.444447222066834   0.875000000000000   1.0000000
N2   N   0.055845475447087   0.445024284227525   0.375000000000000   1.0000000
N2   N   0.221716795377273   0.943050852495195   0.375000000000000   1.0000000
N2   N   0.554975715772503   0.944154524552965   0.375000000000000   1.0000000
N2   N   0.375302491687808   0.443851054108965   0.375000000000000   1.0000000
N2   N   0.889969685086829   0.946080161422082   0.375000000000000   1.0000000
N2   N   0.735215229087805   0.443851054108967   0.375000000000000   1.0000000
N2   N   0.222220618797824   0.611110626242143   0.875000000000000   1.0000000
N2   N   0.055556628022226   0.111110694252295   0.875000000000000   1.0000000
N2   N   0.555547706466870   0.611116810960457   0.875000000000000   1.0000000
N2   N   0.388884822796948   0.111102978927264   0.875000000000000   1.0000000
N2   N   0.888897021072770   0.611115177203091   0.875000000000000   1.0000000
N2   N   0.056949147504796   0.611999276215427   0.375000000000000   1.0000000
N2   N   0.722220732896750   0.111110694252296   0.875000000000000   1.0000000
N2   N   0.216764949117954   0.105115028538063   0.375000000000000   1.0000000
N2   N   0.387242962049431   0.612757037950546   0.375000000000000   1.0000000
N2   N   0.735215229087813   0.624697508312137   0.375000000000000   1.0000000
N2   N   0.555016746086790   0.105115028538063   0.375000000000000   1.0000000
N2   N   0.388884822796945   0.611115177203090   0.875000000000000   1.0000000
N2   N   0.888888888888886   0.111111111111114   0.375000000000000   1.0000000
N2   N   0.222222222222221   0.777777777777779   0.875000000000000   1.0000000
N2   N   0.055556628022227   0.277779267103289   0.875000000000000   1.0000000
N2   N   0.388883189039552   0.277764228839683   0.875000000000000   1.0000000
N2   N   0.555552777933181   0.777779667918064   0.875000000000000   1.0000000
N2   N   0.888893556651565   0.777779667918055   0.875000000000000   1.0000000
N2   N   0.722221863404686   0.277778136595305   0.875000000000000   1.0000000
N2   N   0.056949147504797   0.778283204622717   0.375000000000000   1.0000000
N2   N   0.388000723784624   0.778283204622705   0.375000000000000   1.0000000
N2   N   0.216957506484252   0.275145419908799   0.375000000000000   1.0000000
N2   N   0.724854580091195   0.783042493515744   0.375000000000000   1.0000000
N2   N   0.556148945891013   0.264784770912184   0.375000000000000   1.0000000
N2   N   0.889969685086827   0.277222856998077   0.375000000000000   1.0000000
N2   N   0.055555325567386   0.444443984468089   0.875000000000000   1.0000000
N2   N   0.222220618797826   0.944443325888992   0.875000000000000   1.0000000
N2   N   0.555556015531875   0.944444674432616   0.875000000000000   1.0000000
N2   N   0.388883189039547   0.444452293533189   0.875000000000000   1.0000000
N2   N   0.888889305747722   0.944443371977843   0.875000000000000   1.0000000
N2   N   0.055845475447087   0.944154524552956   0.375000000000000   1.0000000
N2   N   0.722235771160290   0.444452293533189   0.875000000000000   1.0000000
N2   N   0.388000723784619   0.943050852495205   0.375000000000000   1.0000000
N2   N   0.216764949117951   0.444983253913220   0.375000000000000   1.0000000
N2   N   0.221716795377273   0.611999276215427   0.375000000000000   1.0000000
N2   N   0.722777143001926   0.946080161422089   0.375000000000000   1.0000000
N2   N   0.894884971461980   0.444983253913220   0.375000000000000   1.0000000
N2   N   0.055556674111001   0.611110626242131   0.875000000000000   1.0000000
N2   N   0.222220332081923   0.111106443348432   0.875000000000000   1.0000000
N2   N   0.722235771160300   0.611116810960457   0.875000000000000   1.0000000
N2   N   0.555552777933181   0.111106443348431   0.875000000000000   1.0000000
N2   N   0.888888888888886   0.111111111111114   0.875000000000000   1.0000000
B2   B   0.107978105629710   0.053153378558278   0.375000000000000   1.0000000
B2   B   0.628614101940468   0.590561537214202   0.375000000000000   1.0000000
B2   B   0.443872427405111   0.053091202520504   0.375000000000000   1.0000000
B2   B   0.946908797479474   0.556127572594902   0.375000000000000   1.0000000
B2   B   0.778521109137239   0.055927221235293   0.375000000000000   1.0000000
B2   B   0.111106804273848   0.722220068803574   0.875000000000000   1.0000000
B2   B   0.444447198892657   0.722217553640477   0.875000000000000   1.0000000
B2   B   0.277791987466771   0.222230891325654   0.875000000000000   1.0000000
B2   B   0.777769108674345   0.722208012533222   0.875000000000000   1.0000000
B2   B   0.611105570525532   0.222230891325654   0.875000000000000   1.0000000
B2   B   0.944444968880585   0.222223271094372   0.875000000000000   1.0000000
B2   B   0.277391021337192   0.722608978662795   0.375000000000000   1.0000000
B2   B   0.107605678024726   0.220469505679047   0.375000000000000   1.0000000
B2   B   0.442277156738647   0.217887646810592   0.375000000000000   1.0000000
B2   B   0.612813396078515   0.732654550869762   0.375000000000000   1.0000000
B2   B   0.946908797479514   0.724114558217898   0.375000000000000   1.0000000
B2   B   0.779530494320992   0.220469505679045   0.375000000000000   1.0000000
B2   B   0.111108600526401   0.888891399473589   0.875000000000000   1.0000000
B2   B   0.444449465613888   0.888891399473583   0.875000000000000   1.0000000
B2   B   0.277791987466774   0.388894429474432   0.875000000000000   1.0000000
B2   B   0.611103891485274   0.388896108514774   0.875000000000000   1.0000000
B2   B   0.777772898625268   0.888879130583946   0.875000000000000   1.0000000
B2   B   0.944439595534771   0.388887812917751   0.875000000000000   1.0000000
B2   B   0.107978105629709   0.388158060404765   0.375000000000000   1.0000000
B2   B   0.277391021337193   0.888115376007713   0.375000000000000   1.0000000
B2   B   0.611841939595271   0.892021894370298   0.375000000000000   1.0000000
B2   B   0.409438462785767   0.371385898059569   0.375000000000000   1.0000000
B2   B   0.946846621441698   0.892021894370292   0.375000000000000   1.0000000
B2   B   0.786507821457860   0.387186603921427   0.375000000000000   1.0000000
B2   B   0.277782446359562   0.555552801107384   0.875000000000000   1.0000000
B2   B   0.111114884049681   0.055560404465253   0.875000000000000   1.0000000
B2   B   0.611103891485274   0.555541116303781   0.875000000000000   1.0000000
B2   B   0.444447198892654   0.055562978585532   0.875000000000000   1.0000000
B2   B   0.944437021414465   0.555552801107384   0.875000000000000   1.0000000
B2   B   0.111304228094488   0.555941789522349   0.375000000000000   1.0000000
B2   B   0.777776728905636   0.055555031119477   0.875000000000000   1.0000000
B2   B   0.275885441782048   0.053091202520503   0.375000000000000   1.0000000
B2   B   0.442277156738645   0.557722843261372   0.375000000000000   1.0000000
B2   B   0.782112353189379   0.557722843261372   0.375000000000000   1.0000000
B2   B   0.611841939595283   0.053153378558279   0.375000000000000   1.0000000
B2   B   0.444449824851189   0.555550175148815   0.875000000000000   1.0000000
B2   B   0.944072778764718   0.055927221235293   0.375000000000000   1.0000000
B2   B   0.277779931196404   0.722220068803574   0.875000000000000   1.0000000
B2   B   0.111120869416094   0.222227101374704   0.875000000000000   1.0000000
B2   B   0.444449824851188   0.222232983035693   0.875000000000000   1.0000000
B2   B   0.611105570525532   0.722208012533222   0.875000000000000   1.0000000
B2   B   0.944437021414492   0.722217553640477   0.875000000000000   1.0000000
B2   B   0.777772898625270   0.222227101374705   0.875000000000000   1.0000000
B2   B   0.111884623992314   0.722608978662795   0.375000000000000   1.0000000
B2   B   0.443872427405111   0.724114558217898   0.375000000000000   1.0000000
B2   B   0.267345449130282   0.213492178542145   0.375000000000000   1.0000000
B2   B   0.786507821457860   0.732654550869753   0.375000000000000   1.0000000
B2   B   0.612813396078528   0.213492178542139   0.375000000000000   1.0000000
B2   B   0.944072778764718   0.221478890862742   0.375000000000000   1.0000000
B2   B   0.111114884049682   0.388887812917751   0.875000000000000   1.0000000
B2   B   0.277779931196406   0.888893195726141   0.875000000000000   1.0000000
B2   B   0.611112187082226   0.888885115950321   0.875000000000000   1.0000000
B2   B   0.444458883696208   0.388896108514772   0.875000000000000   1.0000000
B2   B   0.944439595534771   0.888885115950322   0.875000000000000   1.0000000
B2   B   0.111304228094488   0.888695771905503   0.375000000000000   1.0000000
B2   B   0.777769108674335   0.388894429474432   0.875000000000000   1.0000000
B2   B   0.444058210477682   0.888695771905500   0.375000000000000   1.0000000
B2   B   0.267345449130268   0.387186603921428   0.375000000000000   1.0000000
B2   B   0.275885441782044   0.556127572594901   0.375000000000000   1.0000000
B2   B   0.628614101940457   0.371385898059561   0.375000000000000   1.0000000
B2   B   0.779530494320988   0.892394321975313   0.375000000000000   1.0000000
B2   B   0.946846621441698   0.388158060404763   0.375000000000000   1.0000000
B2   B   0.111108600526401   0.555550534386129   0.875000000000000   1.0000000
B2   B   0.277782446359562   0.055562978585533   0.875000000000000   1.0000000
B2   B   0.777767016964286   0.555550175148814   0.875000000000000   1.0000000
B2   B   0.611112187082217   0.055560404465253   0.875000000000000   1.0000000
B2   B   0.944444968880585   0.055555031119478   0.875000000000000   1.0000000
B2   B   0.055535810750775   0.111111335375332   0.124911824560020   1.0000000
B2   B   0.555602193597789   0.611117418190819   0.123085628318604   1.0000000
B2   B   0.388913299418147   0.111159932169637   0.124916914854739   1.0000000
B2   B   0.888840067830371   0.611086700581901   0.124916914854739   1.0000000
B2   B   0.722242191291192   0.111111335375332   0.124911824560020   1.0000000
B2   B   0.055537868080097   0.777775107598778   0.625008234199872   1.0000000
B2   B   0.388903906185326   0.777775107598778   0.625008234199872   1.0000000
B2   B   0.222191435267347   0.277762384300327   0.625336759416998   1.0000000
B2   B   0.722237615699623   0.777808564732620   0.625336759416998   1.0000000
B2   B   0.555602193597788   0.277818108740264   0.626914371681430   1.0000000
B2   B   0.888888664624637   0.277757808708788   0.625088175439951   1.0000000
B2   B   0.222222222222221   0.777777777777779   0.124912442846032   1.0000000
B2   B   0.055535810750776   0.277757808708782   0.124911824560020   1.0000000
B2   B   0.388882581809189   0.277818108740270   0.123085628318606   1.0000000
B2   B   0.555583296861481   0.777788318222136   0.124941867020887   1.0000000
B2   B   0.888871688027337   0.777788318222136   0.124941867020887   1.0000000
B2   B   0.722237615699623   0.277762384300327   0.124663240582977   1.0000000
B2   B   0.055544578584781   0.944455421415205   0.625087383086452   1.0000000
B2   B   0.388903906185326   0.944462131919863   0.625008234199872   1.0000000
B2   B   0.222211681777807   0.444416703138478   0.625058132979157   1.0000000
B2   B   0.555555555555557   0.444444444444443   0.628632278519283   1.0000000
B2   B   0.722242191291192   0.944464189249273   0.625088175439951   1.0000000
B2   B   0.888871688027336   0.444416703138474   0.625058132979157   1.0000000
B2   B   0.055544578584780   0.444422490502872   0.124912616913556   1.0000000
B2   B   0.222224892401219   0.944462131919863   0.124991765800138   1.0000000
B2   B   0.555577509497062   0.944455421415205   0.124912616913556   1.0000000
B2   B   0.388882581809185   0.444397806402235   0.123085628318604   1.0000000
B2   B   0.888888664624637   0.944464189249271   0.124911824560020   1.0000000
B2   B   0.722181891259748   0.444397806402235   0.123085628318604   1.0000000
B2   B   0.222224892401216   0.611096093814641   0.625008234199872   1.0000000
B2   B   0.055535810750775   0.111111335375335   0.625088175439951   1.0000000
B2   B   0.555602193597788   0.611117418190833   0.626914371681430   1.0000000
B2   B   0.388913299418150   0.111159932169636   0.625083085145275   1.0000000
B2   B   0.888840067830371   0.611086700581899   0.625083085145275   1.0000000
B2   B   0.055537868080097   0.611096093814649   0.124991765800138   1.0000000
B2   B   0.722242191291192   0.111111335375332   0.625088175439951   1.0000000
B2   B   0.222211681777812   0.111128311972669   0.124941867020887   1.0000000
B2   B   0.388913299418141   0.611086700581901   0.124916914854738   1.0000000
B2   B   0.722181891259748   0.611117418190819   0.123085628318604   1.0000000
B2   B   0.555583296861474   0.111128311972670   0.124941867020887   1.0000000
B2   B   0.388913299418147   0.611086700581901   0.625083085145275   1.0000000
B2   B   0.888888888888886   0.111111111111114   0.124775039702791   1.0000000
B2   B   0.222222222222221   0.777777777777779   0.625087557153983   1.0000000
B2   B   0.055535810750778   0.277757808708783   0.625088175439951   1.0000000
B2   B   0.388882581809190   0.277818108740269   0.626914371681430   1.0000000
B2   B   0.555583296861479   0.777788318222136   0.625058132979157   1.0000000
B2   B   0.888871688027341   0.777788318222136   0.625058132979157   1.0000000
B2   B   0.722237615699623   0.277762384300327   0.625336759416998   1.0000000
B2   B   0.055537868080096   0.777775107598778   0.124991765800138   1.0000000
B2   B   0.388903906185326   0.777775107598778   0.124991765800138   1.0000000
B2   B   0.222191435267343   0.277762384300327   0.124663240582977   1.0000000
B2   B   0.722237615699623   0.777808564732668   0.124663240582977   1.0000000
B2   B   0.555602193597789   0.277818108740269   0.123085628318604   1.0000000
B2   B   0.888888664624637   0.277757808708788   0.124911824560020   1.0000000
B2   B   0.055544578584781   0.444422490502871   0.625087383086452   1.0000000
B2   B   0.222224892401219   0.944462131919864   0.625008234199872   1.0000000
B2   B   0.555577509497078   0.944455421415205   0.625087383086452   1.0000000
B2   B   0.388882581809195   0.444397806402235   0.626914371681430   1.0000000
B2   B   0.888888664624638   0.944464189249273   0.625088175439951   1.0000000
B2   B   0.055544578584781   0.944455421415205   0.124912616913556   1.0000000
B2   B   0.722181891259744   0.444397806402235   0.626914371681430   1.0000000
B2   B   0.388903906185328   0.944462131919864   0.124991765800138   1.0000000
B2   B   0.222211681777807   0.444416703138478   0.124941867020888   1.0000000
B2   B   0.222224892401219   0.611096093814641   0.124991765800138   1.0000000
B2   B   0.555555555555557   0.444444444444443   0.121367721480748   1.0000000
B2   B   0.722242191291192   0.944464189249273   0.124911824560020   1.0000000
B2   B   0.888871688027339   0.444416703138474   0.124941867020887   1.0000000
B2   B   0.055537868080097   0.611096093814641   0.625008234199872   1.0000000
B2   B   0.222211681777811   0.111128311972670   0.625058132979157   1.0000000
B2   B   0.722181891259744   0.611117418190822   0.626914371681430   1.0000000
B2   B   0.555583296861474   0.111128311972670   0.625058132979157   1.0000000
B2   B   0.888888888888886   0.111111111111114   0.625224960297209   1.0000000


