data_1
_audit_creation_method   'vasp2cif'
_cell_length_a    14.93631414619966
_cell_length_b    14.936314146199727
_cell_length_c    13.341276283792837
_cell_angle_alpha    90.0
_cell_angle_beta    90.0
_cell_angle_gamma    119.99999999999984

_symmetry_space_group_name_H-M    'P 1'
loop_
_atom_site_label
_atom_site_type_symbol
_atom_site_fract_x
_atom_site_fract_y
_atom_site_fract_z
_atom_site_occupancy
C2   C   0.441501711197402   0.379052705316633   0.375000000000000   1.0000000
C2   C   0.546177380698021   0.411367378512875   0.375000000000000   1.0000000
N2   N   0.111133091310751   0.055604481344643   0.124993188449443   1.0000000
N2   N   0.611214692814395   0.555589610888202   0.124565719631981   1.0000000
N2   N   0.444509442966162   0.055656287783086   0.124904741158932   1.0000000
N2   N   0.944513521217032   0.555625488481599   0.125615415360440   1.0000000
N2   N   0.777805082542328   0.055621989116921   0.125071427490606   1.0000000
N2   N   0.111171502404685   0.722287867466198   0.624958231103384   1.0000000
N2   N   0.444499543277528   0.722263940976107   0.625005314857078   1.0000000
N2   N   0.277794662312802   0.222258730663187   0.625545205954692   1.0000000
N2   N   0.777864334732688   0.722282336458196   0.624893797228273   1.0000000
N2   N   0.611192420322308   0.222376779640112   0.624630621878849   1.0000000
N2   N   0.944488794048529   0.222278966797000   0.624961296327138   1.0000000
N2   N   0.277835555868230   0.722281249666675   0.125009129399522   1.0000000
N2   N   0.111129744957107   0.222256081004456   0.124923823293087   1.0000000
N2   N   0.444512556062483   0.222311231213436   0.124245701116388   1.0000000
N2   N   0.611169389258864   0.722242716814616   0.124973364621458   1.0000000
N2   N   0.944521844774897   0.722298484038607   0.125239367496489   1.0000000
N2   N   0.777844502207268   0.222325925875449   0.125281215354484   1.0000000
N2   N   0.111166999998928   0.888963240197358   0.624992080392201   1.0000000
N2   N   0.444497656194515   0.888964948865033   0.624954500003844   1.0000000
N2   N   0.277828340630444   0.388919192866900   0.625398780674912   1.0000000
N2   N   0.611259539862811   0.389008637568010   0.625554944826025   1.0000000
N2   N   0.777814885565808   0.888933740185369   0.624933433858497   1.0000000
N2   N   0.944517299853347   0.388961884815738   0.624692102050831   1.0000000
N2   N   0.111164725117192   0.388940709506823   0.125019003055612   1.0000000
N2   N   0.277837643833501   0.888965831268220   0.124984015934755   1.0000000
N2   N   0.611144764853150   0.888944662958651   0.125097082843922   1.0000000
N2   N   0.444492274643204   0.388921372009337   0.123455768281968   1.0000000
N2   N   0.944498509183737   0.888958397300119   0.125035511343065   1.0000000
N2   N   0.777894407549709   0.388970985761462   0.125930000038967   1.0000000
N2   N   0.277839312651188   0.555599654981913   0.625082961650167   1.0000000
N2   N   0.111133091310751   0.055604481344643   0.625006811550564   1.0000000
N2   N   0.611214692814395   0.555589610888202   0.625434280368019   1.0000000
N2   N   0.444509442966162   0.055656287783086   0.625095258841068   1.0000000
N2   N   0.944513521217032   0.555625488481599   0.624384584639566   1.0000000
N2   N   0.111169177118387   0.555615757238027   0.125077971954015   1.0000000
N2   N   0.777805082542328   0.055621989116921   0.624928572509402   1.0000000
N2   N   0.277826876497142   0.055629687494830   0.124802182142687   1.0000000
N2   N   0.444517772325123   0.555586646530466   0.124427955118033   1.0000000
N2   N   0.777900530631229   0.555677725848770   0.125736179266067   1.0000000
N2   N   0.611156475701889   0.055667889079194   0.125146538117033   1.0000000
N2   N   0.444517772325123   0.555586646530466   0.625572044881967   1.0000000
N2   N   0.944468548198748   0.055603045793184   0.125034710349559   1.0000000
N2   N   0.277835555868230   0.722281249666668   0.624990870600484   1.0000000
N2   N   0.111129744957107   0.222256081004456   0.625076176706919   1.0000000
N2   N   0.444512556062483   0.222311231213436   0.625754298883613   1.0000000
N2   N   0.611169389258864   0.722242716814616   0.625026635378542   1.0000000
N2   N   0.944521844774897   0.722298484038607   0.624760632503511   1.0000000
N2   N   0.777844502207268   0.222325925875449   0.624718784645517   1.0000000
N2   N   0.111171502404685   0.722287867466198   0.125041768896616   1.0000000
N2   N   0.444499543277528   0.722263940976107   0.124994685142921   1.0000000
N2   N   0.277794662312802   0.222258730663187   0.124454794045308   1.0000000
N2   N   0.777864334732688   0.722282336458196   0.125106202771727   1.0000000
N2   N   0.611192420322308   0.222376779640112   0.125369378121144   1.0000000
N2   N   0.944488794048529   0.222278966797000   0.125038703672868   1.0000000
N2   N   0.111164725117192   0.388940709506823   0.624980996944388   1.0000000
N2   N   0.277837643833501   0.888965831268220   0.625015984065245   1.0000000
N2   N   0.611144764853150   0.888944662958651   0.624902917156072   1.0000000
N2   N   0.444492274643204   0.388921372009337   0.626544231718025   1.0000000
N2   N   0.944498509183737   0.888958397300119   0.624964488656928   1.0000000
N2   N   0.111166999998928   0.888963240197358   0.125007919607805   1.0000000
N2   N   0.777894407549709   0.388970985761462   0.624069999961027   1.0000000
N2   N   0.444497656194515   0.888964948865033   0.125045499996162   1.0000000
N2   N   0.277828340630444   0.388919192866900   0.124601219325087   1.0000000
N2   N   0.277839312651188   0.555599654981913   0.124917038349827   1.0000000
N2   N   0.611259539862811   0.389008637568010   0.124445055173968   1.0000000
N2   N   0.777814885565808   0.888933740185369   0.125066566141496   1.0000000
N2   N   0.944517299853347   0.388961884815738   0.125307897949176   1.0000000
N2   N   0.111169177118387   0.555615757238027   0.624922028045979   1.0000000
N2   N   0.277826876497142   0.055629687494830   0.625197817857306   1.0000000
N2   N   0.777900530631229   0.555677725848770   0.624263820733933   1.0000000
N2   N   0.611156475701889   0.055667889079194   0.624853461882969   1.0000000
N2   N   0.944468548198748   0.055603045793184   0.624965289650433   1.0000000
N2   N   0.052147987736272   0.109539186812917   0.375000000000000   1.0000000
N2   N   0.556575005016986   0.601141272919823   0.375000000000000   1.0000000
N2   N   0.388123230923766   0.114422031655624   0.375000000000000   1.0000000
N2   N   0.893571286402110   0.613642879048187   0.375000000000000   1.0000000
N2   N   0.720304622509287   0.113174366016559   0.375000000000000   1.0000000
N2   N   0.055662003594824   0.777832434803971   0.875000000000000   1.0000000
N2   N   0.388998820925528   0.777841762499157   0.875000000000000   1.0000000
N2   N   0.222331085579213   0.277839082503268   0.875000000000000   1.0000000
N2   N   0.722329462122760   0.777835724426528   0.875000000000000   1.0000000
N2   N   0.555673003410470   0.277834742407123   0.875000000000000   1.0000000
N2   N   0.888996233230886   0.277839160006895   0.875000000000000   1.0000000
N2   N   0.225218828771375   0.779333287029457   0.375000000000000   1.0000000
N2   N   0.053286612413495   0.277289952017685   0.375000000000000   1.0000000
N2   N   0.379704894051644   0.274574869416502   0.375000000000000   1.0000000
N2   N   0.556178503211925   0.775164120770987   0.375000000000000   1.0000000
N2   N   0.888132309395625   0.776581214611280   0.375000000000000   1.0000000
N2   N   0.720084971513096   0.280982106482847   0.375000000000000   1.0000000
N2   N   0.055660072361901   0.944500648340341   0.875000000000000   1.0000000
N2   N   0.389000514903722   0.944502162720970   0.875000000000000   1.0000000
N2   N   0.222332002971409   0.444509127300966   0.875000000000000   1.0000000
N2   N   0.555674283151702   0.444510296933652   0.875000000000000   1.0000000
N2   N   0.722326668820756   0.944501458792441   0.875000000000000   1.0000000
N2   N   0.889003549822698   0.444505841983534   0.875000000000000   1.0000000
N2   N   0.058072468505671   0.445063957655706   0.375000000000000   1.0000000
N2   N   0.222982317400925   0.945638695120763   0.375000000000000   1.0000000
N2   N   0.555932240411197   0.947824301464680   0.375000000000000   1.0000000
N2   N   0.391117829661082   0.437233607453511   0.375000000000000   1.0000000
N2   N   0.886495962131929   0.943006571016457   0.375000000000000   1.0000000
N2   N   0.734137519730782   0.451311400422811   0.375000000000000   1.0000000
N2   N   0.222330931638523   0.611173246443212   0.875000000000000   1.0000000
N2   N   0.055658929538937   0.111165627813006   0.875000000000000   1.0000000
N2   N   0.555667828310726   0.611172942977633   0.875000000000000   1.0000000
N2   N   0.389002006060587   0.111163961736142   0.875000000000000   1.0000000
N2   N   0.889001841403684   0.611166310686286   0.875000000000000   1.0000000
N2   N   0.059463424974165   0.612727756930256   0.375000000000000   1.0000000
N2   N   0.722326877171348   0.111167957270315   0.875000000000000   1.0000000
N2   N   0.218486139093055   0.109214952994344   0.375000000000000   1.0000000
N2   N   0.391487896294871   0.607586225046289   0.375000000000000   1.0000000
N2   N   0.721784960751640   0.608559643088478   0.375000000000000   1.0000000
N2   N   0.555332150136203   0.122384694262990   0.375000000000000   1.0000000
N2   N   0.388999790290696   0.611176638139836   0.875000000000000   1.0000000
N2   N   0.886200028440250   0.110785271083403   0.375000000000000   1.0000000
N2   N   0.222331603563547   0.777837026983231   0.875000000000000   1.0000000
N2   N   0.055661495191252   0.277837700291379   0.875000000000000   1.0000000
N2   N   0.389005165293771   0.277839209487300   0.875000000000000   1.0000000
N2   N   0.555663246193855   0.777839652506526   0.875000000000000   1.0000000
N2   N   0.888997017846632   0.777834013495224   0.875000000000000   1.0000000
N2   N   0.722333686624908   0.277836684404477   0.875000000000000   1.0000000
N2   N   0.057852209354206   0.779033573186423   0.375000000000000   1.0000000
N2   N   0.391322257804514   0.778078343316619   0.375000000000000   1.0000000
N2   N   0.217598834542167   0.275533473862848   0.375000000000000   1.0000000
N2   N   0.720979520319126   0.775287084501923   0.375000000000000   1.0000000
N2   N   0.548814581063071   0.301253512019616   0.375000000000000   1.0000000
N2   N   0.887191207918299   0.278576926139158   0.375000000000000   1.0000000
N2   N   0.055663253815483   0.444506950427946   0.875000000000000   1.0000000
N2   N   0.222329883444850   0.944499477678069   0.875000000000000   1.0000000
N2   N   0.555662211405138   0.944503263326693   0.875000000000000   1.0000000
N2   N   0.389003989464874   0.444512151851312   0.875000000000000   1.0000000
N2   N   0.888994768690743   0.944500712568077   0.875000000000000   1.0000000
N2   N   0.053757957794232   0.943192320866043   0.375000000000000   1.0000000
N2   N   0.722342151865300   0.444505945113576   0.875000000000000   1.0000000
N2   N   0.390756822284009   0.947734047883144   0.375000000000000   1.0000000
N2   N   0.224467416346380   0.443193657105980   0.375000000000000   1.0000000
N2   N   0.225563772895187   0.611290885830638   0.375000000000000   1.0000000
N2   N   0.720647556760223   0.944115239721298   0.375000000000000   1.0000000
N2   N   0.893186612881489   0.446748673970942   0.375000000000000   1.0000000
N2   N   0.055664559193340   0.611167754717865   0.875000000000000   1.0000000
N2   N   0.222329188032058   0.111166247226639   0.875000000000000   1.0000000
N2   N   0.722334727545215   0.611169091924539   0.875000000000000   1.0000000
N2   N   0.555667521127550   0.111167061899495   0.875000000000000   1.0000000
N2   N   0.888993956834213   0.111166986471180   0.875000000000000   1.0000000
B2   B   0.107477216245581   0.053596386568056   0.375000000000000   1.0000000
B2   B   0.612148342091076   0.540845096553233   0.375000000000000   1.0000000
B2   B   0.444820885882653   0.060119777785506   0.375000000000000   1.0000000
B2   B   0.947942375837964   0.557339336251394   0.375000000000000   1.0000000
B2   B   0.775063063946538   0.055871664657296   0.375000000000000   1.0000000
B2   B   0.111197245383667   0.722259129362979   0.875000000000000   1.0000000
B2   B   0.444558569704121   0.722295256209264   0.875000000000000   1.0000000
B2   B   0.277908732367053   0.222284678256647   0.875000000000000   1.0000000
B2   B   0.777883073280791   0.722246209791062   0.875000000000000   1.0000000
B2   B   0.611249252634229   0.222311011395434   0.875000000000000   1.0000000
B2   B   0.944527260938408   0.222291520355796   0.875000000000000   1.0000000
B2   B   0.280336071886753   0.722865610639588   0.375000000000000   1.0000000
B2   B   0.106645228270536   0.220396003467665   0.375000000000000   1.0000000
B2   B   0.441031175054507   0.225677551657659   0.375000000000000   1.0000000
B2   B   0.610507845943788   0.716268457659453   0.375000000000000   1.0000000
B2   B   0.946570538068281   0.723386297733553   0.375000000000000   1.0000000
B2   B   0.775170985502765   0.224347601285795   0.375000000000000   1.0000000
B2   B   0.111203603157411   0.888917862141085   0.875000000000000   1.0000000
B2   B   0.444557818646278   0.888956849362489   0.875000000000000   1.0000000
B2   B   0.277897386154164   0.388964975974254   0.875000000000000   1.0000000
B2   B   0.611278808183916   0.388970437392208   0.875000000000000   1.0000000
B2   B   0.777877873987894   0.888933694613444   0.875000000000000   1.0000000
B2   B   0.944525563164924   0.388965048049883   0.875000000000000   1.0000000
B2   B   0.112183652947366   0.388524980777473   0.375000000000000   1.0000000
B2   B   0.279590519357266   0.890742157812180   0.375000000000000   1.0000000
B2   B   0.609994577364965   0.888692297817091   0.375000000000000   1.0000000
B2   B   0.942420667852815   0.887329856088273   0.375000000000000   1.0000000
B2   B   0.780863996179793   0.391103543958764   0.375000000000000   1.0000000
B2   B   0.277882504056281   0.555631825187588   0.875000000000000   1.0000000
B2   B   0.111208249272433   0.055594304969205   0.875000000000000   1.0000000
B2   B   0.611255329745684   0.555607186738909   0.875000000000000   1.0000000
B2   B   0.444578015403634   0.055622804816499   0.875000000000000   1.0000000
B2   B   0.944527177009882   0.555599045036545   0.875000000000000   1.0000000
B2   B   0.114105389201537   0.556383423604934   0.375000000000000   1.0000000
B2   B   0.777873339443488   0.055621555628089   0.875000000000000   1.0000000
B2   B   0.276830224633146   0.056428943255153   0.375000000000000   1.0000000
B2   B   0.446728365225220   0.550180417316535   0.375000000000000   1.0000000
B2   B   0.781557672985700   0.558251371568767   0.375000000000000   1.0000000
B2   B   0.609646357619902   0.061677832093634   0.375000000000000   1.0000000
B2   B   0.444580843326816   0.555634659942164   0.875000000000000   1.0000000
B2   B   0.941034030854334   0.054205702096265   0.375000000000000   1.0000000
B2   B   0.277876722417387   0.722284337969518   0.875000000000000   1.0000000
B2   B   0.111203127287503   0.222280178377658   0.875000000000000   1.0000000
B2   B   0.444609950050492   0.222298926944590   0.875000000000000   1.0000000
B2   B   0.611230166678777   0.722278308670780   0.875000000000000   1.0000000
B2   B   0.944529802290793   0.722237025470287   0.875000000000000   1.0000000
B2   B   0.777876300920867   0.222307279312388   0.875000000000000   1.0000000
B2   B   0.113918654046868   0.723617479090242   0.375000000000000   1.0000000
B2   B   0.445662974981229   0.720154816665563   0.375000000000000   1.0000000
B2   B   0.270095938317923   0.218786091279065   0.375000000000000   1.0000000
B2   B   0.776492614308438   0.719645973963441   0.375000000000000   1.0000000
B2   B   0.610127171328160   0.239559569952694   0.375000000000000   1.0000000
B2   B   0.941698021531156   0.222215799959794   0.375000000000000   1.0000000
B2   B   0.111196795604445   0.388960887390419   0.875000000000000   1.0000000
B2   B   0.277885988257986   0.888938742961553   0.875000000000000   1.0000000
B2   B   0.611218696572430   0.888954561998802   0.875000000000000   1.0000000
B2   B   0.444614288107267   0.388972605211161   0.875000000000000   1.0000000
B2   B   0.944534675360841   0.888914247563153   0.875000000000000   1.0000000
B2   B   0.111620784650953   0.889514931882473   0.375000000000000   1.0000000
B2   B   0.777884553161617   0.388970605856840   0.875000000000000   1.0000000
B2   B   0.445363307356960   0.890488125944820   0.375000000000000   1.0000000
B2   B   0.277774667907932   0.385576173424271   0.375000000000000   1.0000000
B2   B   0.280293726694487   0.554568138432874   0.375000000000000   1.0000000
B2   B   0.775462153126514   0.887192705201944   0.375000000000000   1.0000000
B2   B   0.946342686063783   0.390052676657507   0.375000000000000   1.0000000
B2   B   0.111194590080296   0.555617972779024   0.875000000000000   1.0000000
B2   B   0.277900961218253   0.055604994229026   0.875000000000000   1.0000000
B2   B   0.777886716996336   0.555581006415993   0.875000000000000   1.0000000
B2   B   0.611224508650695   0.055630585295262   0.875000000000000   1.0000000
B2   B   0.944531821569029   0.055602121183586   0.875000000000000   1.0000000
B2   B   0.055541140469303   0.111118530719385   0.124905934161870   1.0000000
B2   B   0.555738381827111   0.611114749900478   0.124526768618629   1.0000000
B2   B   0.388997002164924   0.111230569191220   0.124549838127849   1.0000000
B2   B   0.888858386304444   0.611078949719342   0.125859873833181   1.0000000
B2   B   0.722294158442141   0.111282327730226   0.125107612107085   1.0000000
B2   B   0.055549567498790   0.777777345408216   0.624893049500529   1.0000000
B2   B   0.388932277409349   0.777848868294413   0.625002763325443   1.0000000
B2   B   0.222208340773588   0.277786707761173   0.625593954804991   1.0000000
B2   B   0.722332298394786   0.777783289547241   0.625014199044425   1.0000000
B2   B   0.555829345023176   0.278132203342090   0.625097468574247   1.0000000
B2   B   0.888924029730916   0.277917212542212   0.624785807405933   1.0000000
B2   B   0.222223049263104   0.777814442422617   0.124994198929787   1.0000000
B2   B   0.055543213725884   0.277837551554123   0.124927901287093   1.0000000
B2   B   0.389015899582806   0.277853866673680   0.123690976350052   1.0000000
B2   B   0.555637088533357   0.777826013719468   0.124976727807589   1.0000000
B2   B   0.888956340447378   0.777771784651371   0.125152711241970   1.0000000
B2   B   0.722367344534802   0.278068714300798   0.125678940463371   1.0000000
B2   B   0.055564221343399   0.944443156085637   0.625009031955987   1.0000000
B2   B   0.388953762997546   0.944546299879949   0.625046552292932   1.0000000
B2   B   0.222224683911389   0.444505101315312   0.625260103627509   1.0000000
B2   B   0.555835356587195   0.444437591436385   0.625629756262248   1.0000000
B2   B   0.722271461473935   0.944509320721866   0.624978599312779   1.0000000
B2   B   0.888844765244717   0.444520202738433   0.624058033534779   1.0000000
B2   B   0.055528775768767   0.444515184910376   0.125126674258277   1.0000000
B2   B   0.222246613222876   0.944473253409207   0.124909995297657   1.0000000
B2   B   0.555622361199582   0.944569450787986   0.125057218197159   1.0000000
B2   B   0.389016112435591   0.444468908455674   0.123780070746026   1.0000000
B2   B   0.888925394693421   0.944463583701824   0.124999639053440   1.0000000
B2   B   0.722332951478301   0.444541709748551   0.126791516400960   1.0000000
B2   B   0.222214926018083   0.611164517795738   0.625024394460265   1.0000000
B2   B   0.055541140469303   0.111118530719385   0.625094065838130   1.0000000
B2   B   0.555738381827111   0.611114749900478   0.625473231381372   1.0000000
B2   B   0.388997002164924   0.111230569191220   0.625450161872151   1.0000000
B2   B   0.888858386304444   0.611078949719342   0.624140126166820   1.0000000
B2   B   0.055491716552109   0.611125007682582   0.125287443632811   1.0000000
B2   B   0.722294158442141   0.111282327730226   0.624892387892914   1.0000000
B2   B   0.222222046690462   0.111101523002496   0.124623077948821   1.0000000
B2   B   0.388959987808656   0.611167813449537   0.124689085575471   1.0000000
B2   B   0.722403468658352   0.611068651626895   0.125273363792366   1.0000000
B2   B   0.555688915373428   0.111351836374134   0.125120387629135   1.0000000
B2   B   0.388959987808656   0.611167813449537   0.625310914424529   1.0000000
B2   B   0.888909858806844   0.111183896621629   0.124989059232659   1.0000000
B2   B   0.222223049263104   0.777814442422617   0.625005801070212   1.0000000
B2   B   0.055543213725884   0.277837551554123   0.625072098712900   1.0000000
B2   B   0.389015899582806   0.277853866673680   0.626309023649940   1.0000000
B2   B   0.555637088533357   0.777826013719468   0.625023272192418   1.0000000
B2   B   0.888956340447378   0.777771784651371   0.624847288758023   1.0000000
B2   B   0.722367344534802   0.278068714300798   0.624321059536635   1.0000000
B2   B   0.055549567498790   0.777777345408216   0.125106950499477   1.0000000
B2   B   0.388932277409349   0.777848868294413   0.124997236674557   1.0000000
B2   B   0.222208340773588   0.277786707761173   0.124406045195008   1.0000000
B2   B   0.722332298394786   0.777783289547241   0.124985800955583   1.0000000
B2   B   0.555829345023176   0.278132203342090   0.124902531425753   1.0000000
B2   B   0.888924029730916   0.277917212542212   0.125214192594067   1.0000000
B2   B   0.055528775768767   0.444515184910376   0.624873325741723   1.0000000
B2   B   0.222246613222876   0.944473253409207   0.625090004702343   1.0000000
B2   B   0.555622361199582   0.944569450787986   0.624942781802842   1.0000000
B2   B   0.389016112435591   0.444468908455674   0.626219929253967   1.0000000
B2   B   0.888925394693421   0.944463583701824   0.625000360946553   1.0000000
B2   B   0.055564221343399   0.944443156085637   0.124990968044012   1.0000000
B2   B   0.722332951478301   0.444541709748551   0.623208483599047   1.0000000
B2   B   0.388953762997546   0.944546299879949   0.124953447707068   1.0000000
B2   B   0.222224683911389   0.444505101315312   0.124739896372483   1.0000000
B2   B   0.222214926018083   0.611164517795738   0.124975605539743   1.0000000
B2   B   0.555835356587195   0.444437591436385   0.124370243737738   1.0000000
B2   B   0.722271461473935   0.944509320721866   0.125021400687227   1.0000000
B2   B   0.888844765244717   0.444520202738433   0.125941966465222   1.0000000
B2   B   0.055491716552109   0.611125007682582   0.624712556367188   1.0000000
B2   B   0.222222046690462   0.111101523002496   0.625376922051180   1.0000000
B2   B   0.722403468658352   0.611068651626895   0.624726636207640   1.0000000
B2   B   0.555688915373428   0.111351836374134   0.624879612370864   1.0000000
B2   B   0.888909858806844   0.111183896621629   0.625010940767342   1.0000000


