data_1
_audit_creation_method   'vasp2cif'
_cell_length_a    17.52789999999977
_cell_length_b    17.52789999999977
_cell_length_c    15.0
_cell_angle_alpha    90.0
_cell_angle_beta    90.0
_cell_angle_gamma    119.99999999999916

_symmetry_space_group_name_H-M    'P 1'
loop_
_atom_site_label
_atom_site_type_symbol
_atom_site_fract_x
_atom_site_fract_y
_atom_site_fract_z
_atom_site_occupancy
Al2   Al   0.526963351824716   0.624909935301735   0.111107547003673   1.0000000
B2   B   0.908422969858279   0.955207234040213   0.110983621045380   1.0000000
B2   B   0.904645810728499   0.095373712423758   0.110998083072119   1.0000000
B2   B   0.903812868764133   0.237505080721352   0.111031495927236   1.0000000
B2   B   0.904456024049633   0.380392577697995   0.110980097902704   1.0000000
B2   B   0.907271762404115   0.524122616019158   0.110970472181068   1.0000000
B2   B   0.911844832477005   0.668837035459788   0.110991897960888   1.0000000
B2   B   0.911757288568605   0.813722736426142   0.111031407229597   1.0000000
B2   B   0.049844713693702   0.953437802830392   0.110972879875838   1.0000000
B2   B   0.047016607097810   0.094354659992669   0.110982583169195   1.0000000
B2   B   0.045265355257036   0.236540053267863   0.111013836834782   1.0000000
B2   B   0.045104942980262   0.379899958387806   0.111004291316044   1.0000000
B2   B   0.046381561087876   0.523726834714436   0.111006243925999   1.0000000
B2   B   0.049292302620783   0.667676345978181   0.111000710102070   1.0000000
B2   B   0.050601247231543   0.811052620713946   0.110996993921818   1.0000000
B2   B   0.191001611838562   0.952267551762976   0.111007308681592   1.0000000
B2   B   0.189150703173887   0.092903745619276   0.111074605753026   1.0000000
B2   B   0.185514960746122   0.233102482629119   0.111080604387400   1.0000000
B2   B   0.185260556425277   0.378197818216148   0.111038021894177   1.0000000
B2   B   0.185347540127709   0.523478815002403   0.111028156618462   1.0000000
B2   B   0.187699517356569   0.667650637300146   0.111111959922402   1.0000000
B2   B   0.190692027099267   0.810473509902819   0.111027199063405   1.0000000
B2   B   0.332842645614070   0.952447334448008   0.111027270189788   1.0000000
B2   B   0.332266781613229   0.092829121946029   0.111084534555838   1.0000000
B2   B   0.328523922371290   0.231315907577989   0.111031409164571   1.0000000
B2   B   0.322325631387593   0.371064786804260   0.110853443516613   1.0000000
B2   B   0.323357094650644   0.522393686248111   0.110871138356898   1.0000000
B2   B   0.325527870229223   0.668447796225692   0.110925720224227   1.0000000
B2   B   0.331614338488896   0.811247032662569   0.111058826913422   1.0000000
B2   B   0.475505710370770   0.954408919335631   0.111039558711248   1.0000000
B2   B   0.475715477100835   0.093413788067859   0.111045345217001   1.0000000
B2   B   0.474917305564845   0.231022051211904   0.111024750247864   1.0000000
B2   B   0.467338275165022   0.359261530689248   0.110953247231997   1.0000000
B2   B   0.449176705272082   0.506391529567362   0.111527150350291   1.0000000
B2   B   0.461704947819182   0.679369720322444   0.111334627000052   1.0000000
B2   B   0.474218449272844   0.816083279691232   0.110919864508580   1.0000000
B2   B   0.619190978689429   0.953920795392567   0.111000412004319   1.0000000
B2   B   0.619140333208771   0.095224276669782   0.110999806627656   1.0000000
B2   B   0.619463409819301   0.236606014409169   0.110998083645492   1.0000000
B2   B   0.620727249230679   0.378727399564370   0.111035962961247   1.0000000
B2   B   0.640693001662951   0.534917110663390   0.111187657614161   1.0000000
B2   B   0.647200322092413   0.679421189114316   0.110806182784103   1.0000000
B2   B   0.620438206011140   0.812448962624123   0.111014743042758   1.0000000
B2   B   0.763551810053355   0.954145597727800   0.111018588134775   1.0000000
B2   B   0.761967352730908   0.095526603066021   0.111036103623773   1.0000000
B2   B   0.762002355615789   0.237592344181872   0.111014682558510   1.0000000
B2   B   0.763382517944351   0.380330290791022   0.110997721207371   1.0000000
B2   B   0.769060874469754   0.525053796633450   0.111043186503481   1.0000000
B2   B   0.779118206922339   0.673998920090630   0.111226820121637   1.0000000
B2   B   0.771362821976037   0.816831969895462   0.111155092728946   1.0000000
N2   N   0.955999670392191   0.907565482445469   0.110949025768098   1.0000000
N2   N   0.953154922904895   0.048801763872909   0.110935765966467   1.0000000
N2   N   0.951028771011714   0.189890196427611   0.110995940283856   1.0000000
N2   N   0.950859172591154   0.332337104749428   0.110978695973762   1.0000000
N2   N   0.952236538047606   0.475379336547343   0.110957335048094   1.0000000
N2   N   0.955516154700407   0.619200429706969   0.110928274438386   1.0000000
N2   N   0.956630974909060   0.763749767500672   0.110976139401197   1.0000000
N2   N   0.096788625833785   0.905593975878238   0.110975072478017   1.0000000
N2   N   0.095242325907471   0.047454187321078   0.110985911813047   1.0000000
N2   N   0.092228614976888   0.188292810420635   0.111012767428243   1.0000000
N2   N   0.091672497595001   0.331458888836809   0.111021429003806   1.0000000
N2   N   0.091811973137034   0.474967032422381   0.111001935295548   1.0000000
N2   N   0.094014237570633   0.618831136138418   0.111047141730875   1.0000000
N2   N   0.096445874393837   0.762596215008630   0.110990284525954   1.0000000
N2   N   0.238295264807146   0.905144897407133   0.110971102171758   1.0000000
N2   N   0.237802035217232   0.046740222070360   0.111045427636868   1.0000000
N2   N   0.234885639272257   0.187015850554687   0.111074554297506   1.0000000
N2   N   0.230138382262004   0.326944415631963   0.111060208215418   1.0000000
N2   N   0.230635209915494   0.474065676246120   0.110993877952559   1.0000000
N2   N   0.232299035760205   0.618822723102360   0.111023156680284   1.0000000
N2   N   0.236963140761839   0.762664055908543   0.111089840511759   1.0000000
N2   N   0.380510127967865   0.905946856265309   0.111043414586643   1.0000000
N2   N   0.380815906967632   0.046980297281435   0.111027578736358   1.0000000
N2   N   0.379745569104052   0.187397083574133   0.111046270853321   1.0000000
N2   N   0.374763424447623   0.325883925533364   0.110911401987000   1.0000000
N2   N   0.360865882383358   0.464328229509846   0.110645147598667   1.0000000
N2   N   0.369791047108271   0.619574343725475   0.110869940059703   1.0000000
N2   N   0.378420827994037   0.764097568394366   0.110938666989142   1.0000000
N2   N   0.523925078939726   0.909138123609381   0.110977031371854   1.0000000
N2   N   0.524148902937864   0.048232125866825   0.111011802187990   1.0000000
N2   N   0.524246697677005   0.187515322734099   0.111008950073810   1.0000000
N2   N   0.524043318211210   0.325237755763264   0.110992157866782   1.0000000
N2   N   0.522574760996995   0.771008944339895   0.110955404394197   1.0000000
N2   N   0.667713506100254   0.906487330706156   0.110992321289727   1.0000000
N2   N   0.667045713068289   0.048323977740283   0.111002822439764   1.0000000
N2   N   0.667078489361011   0.190126270915205   0.110975150652196   1.0000000
N2   N   0.667782478906714   0.332369888383368   0.111000067071672   1.0000000
N2   N   0.672792536183863   0.476164534771927   0.111064749637219   1.0000000
N2   N   0.687228539533699   0.627090184907077   0.111252613849947   1.0000000
N2   N   0.677277715341597   0.770533735320600   0.111059822158297   1.0000000
N2   N   0.814424208252426   0.909591052055396   0.111053118731899   1.0000000
N2   N   0.809789387795677   0.048372392284765   0.110995583367084   1.0000000
N2   N   0.809154545458370   0.190205492706485   0.111029743685621   1.0000000
N2   N   0.809613521434614   0.332579932856876   0.110988750938859   1.0000000
N2   N   0.812502435751116   0.475587498493503   0.110968890563094   1.0000000
N2   N   0.818410035887358   0.620471343723988   0.111081510079581   1.0000000
N2   N   0.818291303437334   0.767593731001810   0.111148410473854   1.0000000
S2   S   0.522795692318147   0.472454235599769   0.111232844198719   1.0000000


