data_1
_audit_creation_method   'vasp2cif'
_cell_length_a    17.52789999999977
_cell_length_b    17.52789999999977
_cell_length_c    15.0
_cell_angle_alpha    90.0
_cell_angle_beta    90.0
_cell_angle_gamma    119.99999999999916

_symmetry_space_group_name_H-M    'P 1'
loop_
_atom_site_label
_atom_site_type_symbol
_atom_site_fract_x
_atom_site_fract_y
_atom_site_fract_z
_atom_site_occupancy
B2   B   0.905037936177955   0.952565129407064   0.111029695070598   1.0000000
B2   B   0.904409484237995   0.094628859821684   0.111112551216192   1.0000000
B2   B   0.904126380263996   0.237126672051874   0.111095791485468   1.0000000
B2   B   0.904061467459291   0.380034764954927   0.111032607514393   1.0000000
B2   B   0.905392282680831   0.523544805874260   0.111057860117688   1.0000000
B2   B   0.906802722186736   0.667463191343199   0.111115769470142   1.0000000
B2   B   0.906538473298572   0.810862892624097   0.111041290817934   1.0000000
B2   B   0.048535372452696   0.953393238725891   0.110996844860751   1.0000000
B2   B   0.048082075790205   0.095612851289643   0.111022125430663   1.0000000
B2   B   0.047420236703385   0.237470165730723   0.111060864712950   1.0000000
B2   B   0.046760638110708   0.380056190013058   0.111061953891391   1.0000000
B2   B   0.046695794598353   0.523307354056800   0.111062784255662   1.0000000
B2   B   0.047741969243724   0.666805472904622   0.111067472828653   1.0000000
B2   B   0.048291485454909   0.810166240613601   0.111052218493080   1.0000000
B2   B   0.190515750835628   0.952644848879922   0.111007537586394   1.0000000
B2   B   0.191603593518334   0.096351764429973   0.110941603016639   1.0000000
B2   B   0.191643712594750   0.238645231111736   0.111046476946635   1.0000000
B2   B   0.189968067074182   0.380279962013235   0.111024170470074   1.0000000
B2   B   0.188168293121600   0.523497034917286   0.111087311193988   1.0000000
B2   B   0.189156917520070   0.666705335386262   0.111074197265900   1.0000000
B2   B   0.190142002758145   0.809729062173908   0.111040836139631   1.0000000
B2   B   0.332895064179291   0.952088618616973   0.111061685565398   1.0000000
B2   B   0.333002132906447   0.094385048194618   0.111135661367272   1.0000000
B2   B   0.336641344263611   0.239240851222299   0.111101896829063   1.0000000
B2   B   0.335748520497723   0.381834557165973   0.111104274490307   1.0000000
B2   B   0.328822966299669   0.525335898843552   0.110951140682170   1.0000000
B2   B   0.330740260667597   0.667290081526830   0.111036360993014   1.0000000
B2   B   0.332385567865834   0.809667123666138   0.111060411175343   1.0000000
B2   B   0.475571185943059   0.951973329835110   0.111046438717990   1.0000000
B2   B   0.475727809255510   0.094376271051002   0.111055635991713   1.0000000
B2   B   0.474586100088269   0.236180904317113   0.111012550192467   1.0000000
B2   B   0.472422823693823   0.667141444369950   0.110945612845932   1.0000000
B2   B   0.475111615540896   0.809562549894876   0.110997568676060   1.0000000
B2   B   0.618373721125842   0.951420689278171   0.111078575121989   1.0000000
B2   B   0.618536917489080   0.094409164113194   0.111075743359394   1.0000000
B2   B   0.618479728238330   0.237324333994967   0.110969181921564   1.0000000
B2   B   0.618112395717533   0.381144030174261   0.110839189807843   1.0000000
B2   B   0.630843292012274   0.529281462009437   0.111271297394072   1.0000000
B2   B   0.621108412874552   0.665565797137406   0.110910728329357   1.0000000
B2   B   0.618050647140323   0.808115951075060   0.110971447449382   1.0000000
B2   B   0.761348812652364   0.951559884059485   0.111094427523155   1.0000000
B2   B   0.761296367740270   0.094282403104418   0.111159621459381   1.0000000
B2   B   0.761245434959683   0.237091725915895   0.111055098876379   1.0000000
B2   B   0.761375621751271   0.380128984977763   0.110986291776999   1.0000000
B2   B   0.765255118892900   0.524551669468600   0.110932187408911   1.0000000
B2   B   0.766819464502726   0.669105427884585   0.111043974639607   1.0000000
B2   B   0.762303927742616   0.809519885767757   0.110999534756462   1.0000000
C2   C   0.463741724757321   0.528188481718121   0.110952584787290   1.0000000
C2   C   0.520420737390150   0.613966617028383   0.110681345561114   1.0000000
N2   N   0.953275300422015   0.905606816181367   0.111001790966227   1.0000000
N2   N   0.952483572955071   0.047584876028999   0.111038845523040   1.0000000
N2   N   0.951970186241879   0.189798285964585   0.111074131467249   1.0000000
N2   N   0.951585216547358   0.332394124495276   0.111035805960953   1.0000000
N2   N   0.951884184337784   0.475390068489262   0.111036718042590   1.0000000
N2   N   0.952919091818625   0.618880991913098   0.111072972660771   1.0000000
N2   N   0.953341690307112   0.762493659275910   0.111080625452746   1.0000000
N2   N   0.095453996742823   0.905128307233348   0.110996911784397   1.0000000
N2   N   0.095969348219620   0.048409020883908   0.110950593333525   1.0000000
N2   N   0.095693162053729   0.190710687820280   0.111054569494800   1.0000000
N2   N   0.094705099495285   0.332694107404081   0.111024939567425   1.0000000
N2   N   0.093612348786820   0.475388084250388   0.111062221121716   1.0000000
N2   N   0.094348212258896   0.618626095613717   0.111047722525573   1.0000000
N2   N   0.095134694284764   0.761956812592884   0.111025080066215   1.0000000
N2   N   0.237752639488594   0.904671614153293   0.111018601490008   1.0000000
N2   N   0.237951453842616   0.047438851565016   0.110997467013338   1.0000000
N2   N   0.239399289935615   0.191573081806381   0.110948092232104   1.0000000
N2   N   0.239041088791241   0.333926608278564   0.111076169314845   1.0000000
N2   N   0.235241696151542   0.475714043338261   0.111016278442243   1.0000000
N2   N   0.236013781633064   0.618785938297446   0.111065711262642   1.0000000
N2   N   0.237243225748517   0.761814865911792   0.111059207017342   1.0000000
N2   N   0.380378393530793   0.904498614669657   0.111043006498402   1.0000000
N2   N   0.380636198355857   0.046806808001891   0.111065713883934   1.0000000
N2   N   0.380512770492844   0.188489077947839   0.111225062041921   1.0000000
N2   N   0.381907669883740   0.333467302945808   0.110429739534309   1.0000000
N2   N   0.377259992441397   0.477870255126475   0.110940199316415   1.0000000
N2   N   0.377611541096815   0.619511042783745   0.110970512390975   1.0000000
N2   N   0.379724561791540   0.762065642638188   0.111002910494808   1.0000000
N2   N   0.523144344795368   0.904386045908053   0.111013809522858   1.0000000
N2   N   0.523440269223566   0.046903353085294   0.111040532477708   1.0000000
N2   N   0.523660662555139   0.189296899368937   0.110973811800749   1.0000000
N2   N   0.525461891012778   0.328757388764148   0.110784336971934   1.0000000
N2   N   0.522491276252973   0.761808909935051   0.110962917081024   1.0000000
N2   N   0.665903387234622   0.903438239544165   0.111034819542614   1.0000000
N2   N   0.666104460208328   0.046623635263678   0.111102422510015   1.0000000
N2   N   0.666226136267973   0.189668803421163   0.111018709949340   1.0000000
N2   N   0.666141391806644   0.332875090556017   0.110913942966680   1.0000000
N2   N   0.669800786768645   0.477211630147038   0.110830082016278   1.0000000
N2   N   0.672059687238624   0.621169322713937   0.111097158517656   1.0000000
N2   N   0.666651707266134   0.760650790413204   0.110928920951395   1.0000000
N2   N   0.809514371540373   0.904446046877855   0.111038059750060   1.0000000
N2   N   0.808984352229173   0.046730072284034   0.111139746416757   1.0000000
N2   N   0.808908019860284   0.189515843538607   0.111104606128513   1.0000000
N2   N   0.808836027802659   0.332443899806411   0.111004700828783   1.0000000
N2   N   0.810480034292436   0.475754600788899   0.110982886584885   1.0000000
N2   N   0.812013685921498   0.619673896318250   0.111040802320432   1.0000000
N2   N   0.811552216764791   0.763259189675057   0.110986145382358   1.0000000


