data_1
_audit_creation_method   'vasp2cif'
_cell_length_a    17.52789999999977
_cell_length_b    17.52789999999977
_cell_length_c    15.0
_cell_angle_alpha    90.0
_cell_angle_beta    90.0
_cell_angle_gamma    119.99999999999916

_symmetry_space_group_name_H-M    'P 1'
loop_
_atom_site_label
_atom_site_type_symbol
_atom_site_fract_x
_atom_site_fract_y
_atom_site_fract_z
_atom_site_occupancy
B2   B   0.906245943335095   0.953935239234405   0.110977093203130   1.0000000
B2   B   0.904509930813763   0.095492090382254   0.111034103285896   1.0000000
B2   B   0.904095971649065   0.237872921110130   0.111027108561939   1.0000000
B2   B   0.904950283791304   0.380842624589455   0.110954311495993   1.0000000
B2   B   0.907513695172376   0.524362507284340   0.110970382883288   1.0000000
B2   B   0.907527057646287   0.668101525687423   0.110997463405568   1.0000000
B2   B   0.908133952964047   0.812121989695370   0.110993149152942   1.0000000
B2   B   0.047935356989221   0.952066664206877   0.111024905358842   1.0000000
B2   B   0.046066781961372   0.093756077860780   0.110977093203130   1.0000000
B2   B   0.045223636227408   0.236665220226444   0.110926504501341   1.0000000
B2   B   0.045610356017834   0.380397964986948   0.110910338183161   1.0000000
B2   B   0.047043633660859   0.524149928577870   0.110951851832475   1.0000000
B2   B   0.048585246994673   0.667237906770334   0.111027703207257   1.0000000
B2   B   0.048742448330290   0.809885599799045   0.111042593690955   1.0000000
B2   B   0.190116421397256   0.951259572865439   0.111042593690955   1.0000000
B2   B   0.187880031500575   0.091868068231755   0.110993149152942   1.0000000
B2   B   0.185224229591607   0.233398365529408   0.110871474427282   1.0000000
B2   B   0.185351907406099   0.378487187529064   0.110881603436163   1.0000000
B2   B   0.186165114199525   0.523962472052819   0.110854528073300   1.0000000
B2   B   0.190132273449515   0.667180517333467   0.110997240014464   1.0000000
B2   B   0.190548008396516   0.809454012799369   0.111001413808213   1.0000000
B2   B   0.332764114426416   0.951416774201503   0.111027703207257   1.0000000
B2   B   0.331900495509490   0.092474963549664   0.110997463405565   1.0000000
B2   B   0.326964632607811   0.230772458433994   0.110953055523276   1.0000000
B2   B   0.322974010903266   0.371667368824324   0.111384384236340   1.0000000
B2   B   0.322709315959742   0.523018786032068   0.111327670375831   1.0000000
B2   B   0.332289231620620   0.667712789576278   0.110994689113311   1.0000000
B2   B   0.332821503863353   0.809869747746797   0.110997240014464   1.0000000
B2   B   0.475852092619004   0.952958387535344   0.110951851832475   1.0000000
B2   B   0.475639513912567   0.092488326023571   0.110970382883288   1.0000000
B2   B   0.475454271526568   0.230878950277348   0.110949285514769   1.0000000
B2   B   0.464244824623347   0.357447782010938   0.111291082788576   1.0000000
B2   B   0.476983235165168   0.677292705236908   0.111327670375831   1.0000000
B2   B   0.476039549144232   0.813836906996498   0.110854528073300   1.0000000
B2   B   0.619604056209176   0.954391665178286   0.110910338183161   1.0000000
B2   B   0.619159396606689   0.095051737404801   0.110954311495993   1.0000000
B2   B   0.619527716051980   0.236151421513996   0.110938372163080   1.0000000
B2   B   0.621551455261167   0.378450565934875   0.111061483372190   1.0000000
B2   B   0.642554239185069   0.535757196573585   0.111291082788576   1.0000000
B2   B   0.628334652372116   0.677028010293627   0.111384384236340   1.0000000
B2   B   0.621514833666786   0.814650113789935   0.110881603436163   1.0000000
B2   B   0.763336800969525   0.954778384968662   0.110926504501341   1.0000000
B2   B   0.762129100086097   0.095906049547059   0.111027108561939   1.0000000
B2   B   0.762245170695396   0.237756850500319   0.111000838396908   1.0000000
B2   B   0.763850599682104   0.380474305144059   0.110938372163080   1.0000000
B2   B   0.769123070918407   0.524547749670345   0.110949285514769   1.0000000
B2   B   0.769229562762165   0.673037388589069   0.110953055523276   1.0000000
B2   B   0.766603655666486   0.814777791604369   0.110871474427282   1.0000000
N2   N   0.953805829982320   0.906272712219950   0.110994744583872   1.0000000
N2   N   0.952020159064727   0.047981242853579   0.111000171724749   1.0000000
N2   N   0.951036362070029   0.190034807872008   0.111006668144573   1.0000000
N2   N   0.951363669879199   0.332747190035262   0.110952944966265   1.0000000
N2   N   0.953065680552107   0.475959159308185   0.110948978324412   1.0000000
N2   N   0.954120920153117   0.619644294284927   0.111001928901207   1.0000000
N2   N   0.954316813517802   0.763147361409602   0.111027197434572   1.0000000
N2   N   0.095475629532726   0.904525772385639   0.111023550848229   1.0000000
N2   N   0.093728689697995   0.046195571935762   0.110994744583872   1.0000000
N2   N   0.091590006149398   0.187955796171002   0.110884979763081   1.0000000
N2   N   0.091627090502332   0.331614970252607   0.110866501044056   1.0000000
N2   N   0.092492088747458   0.475647226886281   0.110872100210469   1.0000000
N2   N   0.095378851143274   0.619288090642035   0.110987198093621   1.0000000
N2   N   0.095889439044921   0.762116964743248   0.111001148900900   1.0000000
N2   N   0.237884437174624   0.904111962873177   0.111001148900900   1.0000000
N2   N   0.236854040508451   0.045684588400325   0.111027197434572   1.0000000
N2   N   0.233110618969446   0.185759004756151   0.110885071423220   1.0000000
N2   N   0.229928627926602   0.327597679463476   0.110902623772693   1.0000000
N2   N   0.230082910592457   0.474515887123626   0.110833390530373   1.0000000
N2   N   0.237051535189350   0.619342011981687   0.110925666183143   1.0000000
N2   N   0.237950002729265   0.762051399188777   0.110998328266856   1.0000000
N2   N   0.380713311276442   0.904622550774825   0.110987198093621   1.0000000
N2   N   0.380357107633197   0.045880481764527   0.111001928901207   1.0000000
N2   N   0.378962716373138   0.186687256719218   0.110899453586874   1.0000000
N2   N   0.371149258718470   0.324278618909646   0.111184207870048   1.0000000
N2   N   0.357696415420709   0.465861231715438   0.112014341935881   1.0000000
N2   N   0.380038177290201   0.619963224627938   0.111173591398717   1.0000000
N2   N   0.380659389936286   0.762949866728463   0.110925666183143   1.0000000
N2   N   0.524354175030724   0.907509313170404   0.110872100210469   1.0000000
N2   N   0.524042242608998   0.046935721365691   0.110948978324412   1.0000000
N2   N   0.524225104601215   0.186174693271967   0.110906023154689   1.0000000
N2   N   0.524278202259025   0.323393364158564   0.111064005846021   1.0000000
N2   N   0.534140170201656   0.642304986497542   0.112014341935881   1.0000000
N2   N   0.525485514793323   0.769918491325652   0.110833390530373   1.0000000
N2   N   0.668386431664328   0.908374311415494   0.110866501044056   1.0000000
N2   N   0.667254211881798   0.048637732038752   0.110952944966265   1.0000000
N2   N   0.667337139328088   0.189724822486848   0.110946138127899   1.0000000
N2   N   0.668486864070981   0.331514537845893   0.110950622106352   1.0000000
N2   N   0.676608037758422   0.475723199657893   0.111064005846021   1.0000000
N2   N   0.675722783007268   0.628852143199719   0.111184207870048   1.0000000
N2   N   0.672403722453434   0.770072773991558   0.110902623772693   1.0000000
N2   N   0.812045605747065   0.908411395768565   0.110884979763081   1.0000000
N2   N   0.809966594045720   0.048965039847948   0.111006668144571   1.0000000
N2   N   0.809508546478208   0.190492855439645   0.111028678381072   1.0000000
N2   N   0.810276579431356   0.332664262588646   0.110946138127899   1.0000000
N2   N   0.813826708645800   0.475776297315796   0.110906023154689   1.0000000
N2   N   0.813314145198806   0.621038685544752   0.110899453586874   1.0000000
N2   N   0.814242397161752   0.766890782948671   0.110885071423220   1.0000000
As2   As   0.469221556782582   0.530780464414410   0.111763695036289   1.0000000
P2   P   0.533603969856594   0.466397432060585   0.111238909964316   1.0000000


