data_1
_audit_creation_method   'vasp2cif'
_cell_length_a    14.93631414619966
_cell_length_b    14.936314146199727
_cell_length_c    13.341276283792837
_cell_angle_alpha    90.0
_cell_angle_beta    90.0
_cell_angle_gamma    119.99999999999984

_symmetry_space_group_name_H-M    'P 1'
loop_
_atom_site_label
_atom_site_type_symbol
_atom_site_fract_x
_atom_site_fract_y
_atom_site_fract_z
_atom_site_occupancy
O2   O   0.427572473208977   0.380452903271152   0.375000000000000   1.0000000
O2   O   0.585017106356171   0.459175219844750   0.375000000000000   1.0000000
N2   N   0.111077749911183   0.055555072401125   0.124998121218982   1.0000000
N2   N   0.611117131597212   0.555537812409965   0.125688361356016   1.0000000
N2   N   0.444422063048308   0.055567359749407   0.125072431832874   1.0000000
N2   N   0.944456825670354   0.555554810479164   0.124986795470027   1.0000000
N2   N   0.777720038213318   0.055526685773330   0.124995551432701   1.0000000
N2   N   0.111114262064038   0.722223797698687   0.624985706747292   1.0000000
N2   N   0.444422063048308   0.722188036632237   0.624927568167126   1.0000000
N2   N   0.277727061353810   0.222220954851960   0.624824763669830   1.0000000
N2   N   0.777783176016008   0.722227301626869   0.625002653867369   1.0000000
N2   N   0.611097035359763   0.222229291389636   0.624860018990518   1.0000000
N2   N   0.944388274497845   0.222192925373267   0.625047599342512   1.0000000
N2   N   0.277769330667076   0.722206854248168   0.125021345223336   1.0000000
N2   N   0.111031377814941   0.222182355574139   0.124935505719945   1.0000000
N2   N   0.444446058093663   0.222251851058806   0.125324380344384   1.0000000
N2   N   0.611097035359763   0.722201077303455   0.125139981009482   1.0000000
N2   N   0.944456825670354   0.722235348524527   0.124986795470027   1.0000000
N2   N   0.777748006898320   0.222206722255437   0.124986669170795   1.0000000
N2   N   0.111107436780267   0.888903662962272   0.624990062551494   1.0000000
N2   N   0.444416274975077   0.888874804154202   0.624971283254301   1.0000000
N2   N   0.277727061353810   0.388839439835172   0.624824763669830   1.0000000
N2   N   0.611117131597212   0.388912652520576   0.624311638643984   1.0000000
N2   N   0.777748006898320   0.888874617976212   0.625013330829205   1.0000000
N2   N   0.944431646904165   0.388872768622353   0.625034232874796   1.0000000
N2   N   0.111077749911183   0.388856010843380   0.124998121218982   1.0000000
N2   N   0.277769330667076   0.888895809752244   0.125021345223336   1.0000000
N2   N   0.611068068381864   0.888860985364385   0.125025823796549   1.0000000
N2   N   0.444419978390141   0.388876655861731   0.125182520234328   1.0000000
N2   N   0.944431646904165   0.888892211615140   0.124965767125204   1.0000000
N2   N   0.777783176016008   0.388889207722475   0.124997346132624   1.0000000
N2   N   0.277764878542534   0.555524497280184   0.624935660083894   1.0000000
N2   N   0.111077749911183   0.055555072401125   0.625001878781018   1.0000000
N2   N   0.611117131597212   0.555537812409965   0.624311638643984   1.0000000
N2   N   0.444422063048308   0.055567359749407   0.624927568167126   1.0000000
N2   N   0.944456825670354   0.555554810479164   0.625013204529973   1.0000000
N2   N   0.111107436780267   0.555537107151331   0.125009937448506   1.0000000
N2   N   0.777720038213318   0.055526685773330   0.625004448567300   1.0000000
N2   N   0.277764878542541   0.055573714595686   0.125064339916106   1.0000000
N2   N   0.444446058093663   0.555527540368193   0.125324380344384   1.0000000
N2   N   0.777799776785519   0.555566555059427   0.125095621651403   1.0000000
N2   N   0.611068068381864   0.055540416350808   0.125025823796549   1.0000000
N2   N   0.444446058093663   0.555527540368193   0.624675619655617   1.0000000
N2   N   0.944388274497845   0.055528682457914   0.124952400657488   1.0000000
N2   N   0.277769330667076   0.722206854248168   0.624978654776664   1.0000000
N2   N   0.111031377814941   0.222182355574139   0.625064494280048   1.0000000
N2   N   0.444446058093663   0.222251851058806   0.624675619655617   1.0000000
N2   N   0.611097035359763   0.722201077303455   0.624860018990518   1.0000000
N2   N   0.944456825670354   0.722235348524527   0.625013204529973   1.0000000
N2   N   0.777748006898320   0.222206722255437   0.625013330829205   1.0000000
N2   N   0.111114262064038   0.722223797698687   0.125014293252708   1.0000000
N2   N   0.444422063048308   0.722188036632237   0.125072431832874   1.0000000
N2   N   0.277727061353810   0.222220954851960   0.125175236330170   1.0000000
N2   N   0.777783176016008   0.722227301626869   0.124997346132624   1.0000000
N2   N   0.611097035359763   0.222229291389636   0.125139981009482   1.0000000
N2   N   0.944388274497845   0.222192925373267   0.124952400657488   1.0000000
N2   N   0.111077749911183   0.388856010843380   0.625001878781018   1.0000000
N2   N   0.277769330667076   0.888895809752244   0.624978654776664   1.0000000
N2   N   0.611068068381864   0.888860985364385   0.624974176203451   1.0000000
N2   N   0.444419978390141   0.388876655861731   0.624817479765672   1.0000000
N2   N   0.944431646904165   0.888892211615140   0.625034232874796   1.0000000
N2   N   0.111107436780267   0.888903662962272   0.125009937448506   1.0000000
N2   N   0.777783176016008   0.388889207722475   0.625002653867369   1.0000000
N2   N   0.444416274975077   0.888874804154202   0.125028716745699   1.0000000
N2   N   0.277727061353810   0.388839439835172   0.125175236330170   1.0000000
N2   N   0.277764878542534   0.555524497280184   0.125064339916106   1.0000000
N2   N   0.611117131597212   0.388912652520576   0.125688361356016   1.0000000
N2   N   0.777748006898320   0.888874617976212   0.124986669170795   1.0000000
N2   N   0.944431646904165   0.388872768622353   0.124965767125204   1.0000000
N2   N   0.111107436780267   0.555537107151331   0.624990062551494   1.0000000
N2   N   0.277764878542534   0.055573714595686   0.624935660083894   1.0000000
N2   N   0.777799776785519   0.555566555059427   0.624904378348597   1.0000000
N2   N   0.611068068381864   0.055540416350808   0.624974176203451   1.0000000
N2   N   0.944388274497845   0.055528682457914   0.625047599342512   1.0000000
N2   N   0.051780600192721   0.108836445430221   0.375000000000000   1.0000000
N2   N   0.556104120846384   0.606306885798842   0.375000000000000   1.0000000
N2   N   0.388802897693445   0.114833683839292   0.375000000000000   1.0000000
N2   N   0.894077066096552   0.613705199714951   0.375000000000000   1.0000000
N2   N   0.720585206582564   0.110740624114623   0.375000000000000   1.0000000
N2   N   0.055556930191919   0.777780366878975   0.875000000000000   1.0000000
N2   N   0.388892316224348   0.777778547460121   0.875000000000000   1.0000000
N2   N   0.222225357979815   0.277779345656579   0.875000000000000   1.0000000
N2   N   0.722225072560101   0.777778101680714   0.875000000000000   1.0000000
N2   N   0.555556598382704   0.277782509258202   0.875000000000000   1.0000000
N2   N   0.888892812128428   0.277780054154500   0.875000000000000   1.0000000
N2   N   0.224221531240488   0.778777432286915   0.375000000000000   1.0000000
N2   N   0.051780600192721   0.276277488095836   0.375000000000000   1.0000000
N2   N   0.377265576134228   0.272955330659021   0.375000000000000   1.0000000
N2   N   0.555122903793336   0.775272941907582   0.375000000000000   1.0000000
N2   N   0.892267176688811   0.780001604337845   0.375000000000000   1.0000000
N2   N   0.722069344056511   0.278634113962483   0.375000000000000   1.0000000
N2   N   0.055558269005759   0.944445533361557   0.875000000000000   1.0000000
N2   N   0.388892316224348   0.944447102097562   0.875000000000000   1.0000000
N2   N   0.222223166355216   0.444443911283721   0.875000000000000   1.0000000
N2   N   0.555558892870683   0.444446113102006   0.875000000000000   1.0000000
N2   N   0.722223092896360   0.944443573244723   0.875000000000000   1.0000000
N2   N   0.888892480802345   0.444446876088630   0.875000000000000   1.0000000
N2   N   0.055413966636509   0.444472965551150   0.375000000000000   1.0000000
N2   N   0.223377996219408   0.945659565377195   0.375000000000000   1.0000000
N2   N   0.555039457233307   0.944186395283315   0.375000000000000   1.0000000
N2   N   0.377265576134228   0.437643578808542   0.375000000000000   1.0000000
N2   N   0.887278121167842   0.943269170963238   0.375000000000000   1.0000000
N2   N   0.731023200307774   0.447458888691722   0.375000000000000   1.0000000
N2   N   0.222222599837331   0.611112026916628   0.875000000000000   1.0000000
N2   N   0.055556972422207   0.111109282636451   0.875000000000000   1.0000000
N2   N   0.555556598382704   0.611107422457838   0.875000000000000   1.0000000
N2   N   0.388893057111750   0.111115090536974   0.875000000000000   1.0000000
N2   N   0.888893060735559   0.611113197034454   0.875000000000000   1.0000000
N2   N   0.058395870604806   0.612347005931238   0.375000000000000   1.0000000
N2   N   0.722223092896360   0.111112852984973   0.875000000000000   1.0000000
N2   N   0.218563433983390   0.108746304180988   0.375000000000000   1.0000000
N2   N   0.388802897693445   0.607302547187495   0.375000000000000   1.0000000
N2   N   0.731023200307774   0.616897644949381   0.375000000000000   1.0000000
N2   N   0.555122903793336   0.113183295219081   0.375000000000000   1.0000000
N2   N   0.388893057111750   0.611111299908119   0.875000000000000   1.0000000
N2   N   0.886142106053994   0.109737719693672   0.375000000000000   1.0000000
N2   N   0.222225235042411   0.777779284187870   0.875000000000000   1.0000000
N2   N   0.055556972422207   0.277781023119092   0.875000000000000   1.0000000
N2   N   0.388891372347016   0.277778916707309   0.875000000000000   1.0000000
N2   N   0.555555986550463   0.777778303353966   0.875000000000000   1.0000000
N2   N   0.888892480802345   0.777778938047051   0.875000000000000   1.0000000
N2   N   0.722225072560101   0.277780304212716   0.875000000000000   1.0000000
N2   N   0.058395870604806   0.779382198006904   0.375000000000000   1.0000000
N2   N   0.389699558027516   0.776954721950834   0.375000000000000   1.0000000
N2   N   0.214849071558992   0.274091202446164   0.375000000000000   1.0000000
N2   N   0.722069344056511   0.776768563427372   0.375000000000000   1.0000000
N2   N   0.556104120846384   0.283130568380877   0.375000000000000   1.0000000
N2   N   0.887278121167842   0.277342283537940   0.375000000000000   1.0000000
N2   N   0.055558269005759   0.444446068977531   0.875000000000000   1.0000000
N2   N   0.222222599837331   0.944443906254037   0.875000000000000   1.0000000
N2   N   0.555557361952003   0.944445347642669   0.875000000000000   1.0000000
N2   N   0.388891372347016   0.444445788973043   0.875000000000000   1.0000000
N2   N   0.888892812128428   0.944446091307264   0.875000000000000   1.0000000
N2   N   0.055413966636509   0.944274334418695   0.375000000000000   1.0000000
N2   N   0.722221456504175   0.444444070352398   0.875000000000000   1.0000000
N2   N   0.389699558027516   0.946078169410017   0.375000000000000   1.0000000
N2   N   0.218563433983390   0.443150463135738   0.375000000000000   1.0000000
N2   N   0.223377996219408   0.611051764175549   0.375000000000000   1.0000000
N2   N   0.720585206582564   0.943177915801276   0.375000000000000   1.0000000
N2   N   0.892267176688811   0.445598905684302   0.375000000000000   1.0000000
N2   N   0.055556930191919   0.611109896646280   0.875000000000000   1.0000000
N2   N   0.222223166355216   0.111112588404830   0.875000000000000   1.0000000
N2   N   0.722221456504175   0.611110719485120   0.875000000000000   1.0000000
N2   N   0.555555986550463   0.111111016529833   0.875000000000000   1.0000000
N2   N   0.888893862263069   0.111113597798202   0.875000000000000   1.0000000
B2   B   0.108311897529926   0.054189825061356   0.375000000000000   1.0000000
B2   B   0.621692847181970   0.560306352105496   0.375000000000000   1.0000000
B2   B   0.444135511164017   0.058027594236024   0.375000000000000   1.0000000
B2   B   0.947939238836389   0.556844949678124   0.375000000000000   1.0000000
B2   B   0.775403668861764   0.054368501097550   0.375000000000000   1.0000000
B2   B   0.111113996589157   0.722223664961243   0.875000000000000   1.0000000
B2   B   0.444444261648946   0.722216931880929   0.875000000000000   1.0000000
B2   B   0.277789283254474   0.222231687139250   0.875000000000000   1.0000000
B2   B   0.777777422895196   0.722220267652815   0.875000000000000   1.0000000
B2   B   0.611107901343458   0.222227451400219   0.875000000000000   1.0000000
B2   B   0.944450308966634   0.222225718734179   0.875000000000000   1.0000000
B2   B   0.278896846008872   0.722232336587479   0.375000000000000   1.0000000
B2   B   0.105309761657161   0.219321547495245   0.375000000000000   1.0000000
B2   B   0.443484650200462   0.227442854110134   0.375000000000000   1.0000000
B2   B   0.610438262274480   0.718904592221714   0.375000000000000   1.0000000
B2   B   0.947939238836389   0.724427622491594   0.375000000000000   1.0000000
B2   B   0.776266538393149   0.221900329112715   0.375000000000000   1.0000000
B2   B   0.111114558954613   0.888892673785465   0.875000000000000   1.0000000
B2   B   0.444445960795823   0.888889647064572   0.875000000000000   1.0000000
B2   B   0.277789283254474   0.388890929448553   0.875000000000000   1.0000000
B2   B   0.611102363168805   0.388890805543329   0.875000000000000   1.0000000
B2   B   0.777780616823440   0.888888392158124   0.875000000000000   1.0000000
B2   B   0.944448425890127   0.388890230114176   0.875000000000000   1.0000000
B2   B   0.108311897529926   0.387455405801906   0.375000000000000   1.0000000
B2   B   0.278896846008872   0.889997842754715   0.375000000000000   1.0000000
B2   B   0.609759769541888   0.887179050881580   0.375000000000000   1.0000000
B2   B   0.945082925943095   0.889824602017050   0.375000000000000   1.0000000
B2   B   0.782321653414658   0.389769593471832   0.375000000000000   1.0000000
B2   B   0.277782146991605   0.555552918018378   0.875000000000000   1.0000000
B2   B   0.111117334789096   0.055560570603061   0.875000000000000   1.0000000
B2   B   0.611102363168805   0.555544890958804   0.875000000000000   1.0000000
B2   B   0.444444261648946   0.055560663101353   0.875000000000000   1.0000000
B2   B   0.944446545994833   0.555555664750603   0.875000000000000   1.0000000
B2   B   0.112488168678386   0.555724076437494   0.375000000000000   1.0000000
B2   B   0.777781672238719   0.055557502786027   0.875000000000000   1.0000000
B2   B   0.277435687999737   0.056666114985091   0.375000000000000   1.0000000
B2   B   0.443484650200462   0.549375129423664   0.375000000000000   1.0000000
B2   B   0.784217639545716   0.558775486439526   0.375000000000000   1.0000000
B2   B   0.609759769541888   0.055914051993635   0.375000000000000   1.0000000
B2   B   0.444442361536637   0.555543951872154   0.875000000000000   1.0000000
B2   B   0.941320715796669   0.053865489479401   0.375000000000000   1.0000000
B2   B   0.277780741022819   0.722221801058846   0.875000000000000   1.0000000
B2   B   0.111120875698658   0.222227104515997   0.875000000000000   1.0000000
B2   B   0.444442361536637   0.222231742997818   0.875000000000000   1.0000000
B2   B   0.611107901343458   0.722213783276568   0.875000000000000   1.0000000
B2   B   0.944446545994833   0.722224214577571   0.875000000000000   1.0000000
B2   B   0.777780616823440   0.222225557998644   0.875000000000000   1.0000000
B2   B   0.113518283881815   0.723425808607568   0.375000000000000   1.0000000
B2   B   0.444135511164017   0.719441250261329   0.375000000000000   1.0000000
B2   B   0.269112683098825   0.218196746643870   0.375000000000000   1.0000000
B2   B   0.782321653414658   0.725885393276156   0.375000000000000   1.0000000
B2   B   0.610438262274480   0.224867003386096   0.375000000000000   1.0000000
B2   B   0.941320715796669   0.220788559650603   0.375000000000000   1.0000000
B2   B   0.111117334789096   0.388890097519363   0.875000000000000   1.0000000
B2   B   0.277780741022819   0.888892273297301   0.875000000000000   1.0000000
B2   B   0.611110699444521   0.888886674578534   0.875000000000000   1.0000000
B2   B   0.444443196198523   0.388888264765930   0.875000000000000   1.0000000
B2   B   0.944448425890127   0.888891529109280   0.875000000000000   1.0000000
B2   B   0.112488168678386   0.890097425574220   0.375000000000000   1.0000000
B2   B   0.777777422895196   0.388890488575708   0.875000000000000   1.0000000
B2   B   0.444335253666848   0.888834293500089   0.375000000000000   1.0000000
B2   B   0.269112683098825   0.384249269788284   0.375000000000000   1.0000000
B2   B   0.277435687999737   0.554102906347981   0.375000000000000   1.0000000
B2   B   0.621692847181970   0.394719828409802   0.375000000000000   1.0000000
B2   B   0.776266538393149   0.887699542613762   0.375000000000000   1.0000000
B2   B   0.945082925943095   0.388591657259373   0.375000000000000   1.0000000
B2   B   0.111114558954613   0.555555218502482   0.875000000000000   1.0000000
B2   B   0.277782146991605   0.055562562306564   0.875000000000000   1.0000000
B2   B   0.777775712746666   0.555554523040004   0.875000000000000   1.0000000
B2   B   0.611110699444521   0.055557358199316   0.875000000000000   1.0000000
B2   B   0.944450308966634   0.055557923565791   0.875000000000000   1.0000000
B2   B   0.055549897760905   0.111191208304406   0.124949158175651   1.0000000
B2   B   0.555575031588975   0.611160383092534   0.125386168570962   1.0000000
B2   B   0.388788420582809   0.111109350417872   0.125135601953857   1.0000000
B2   B   0.888816350041814   0.611074841687583   0.124976316210935   1.0000000
B2   B   0.722228274077934   0.111047037006100   0.124992405264486   1.0000000
B2   B   0.055614017080532   0.777744391437676   0.625015902306834   1.0000000
B2   B   0.388923032254317   0.777850996964765   0.624977456165553   1.0000000
B2   B   0.222079471531859   0.277706402432597   0.624944540634869   1.0000000
B2   B   0.722110122615534   0.777717959086094   0.624976890230930   1.0000000
B2   B   0.555575031588975   0.277747981829770   0.624613831429037   1.0000000
B2   B   0.888903114332329   0.277853431733344   0.625037238505101   1.0000000
B2   B   0.222136133558647   0.777734733445991   0.125005033771237   1.0000000
B2   B   0.055549897760905   0.277692022789835   0.124949158175651   1.0000000
B2   B   0.388945973553863   0.277958782655636   0.125448438733346   1.0000000
B2   B   0.555578458238577   0.777697944812757   0.125047293257579   1.0000000
B2   B   0.888940346262763   0.777881938624379   0.124951293038776   1.0000000
B2   B   0.722110122615534   0.277725496862775   0.125023109769071   1.0000000
B2   B   0.055447611376862   0.944405821419288   0.625031150720125   1.0000000
B2   B   0.388923032254317   0.944405368622887   0.624977456165553   1.0000000
B2   B   0.222253710129852   0.444498262528586   0.624949887847918   1.0000000
B2   B   0.555323243082760   0.444328288208048   0.624301003106550   1.0000000
B2   B   0.722228274077934   0.944514570405171   0.625007594735514   1.0000000
B2   B   0.888940346262763   0.444391740971713   0.625048706961217   1.0000000
B2   B   0.055447611376862   0.444375123290904   0.124968849279874   1.0000000
B2   B   0.222273951488033   0.944566455678129   0.125011136882733   1.0000000
B2   B   0.555427821018110   0.944380577175719   0.125012769769563   1.0000000
B2   B   0.388945973553863   0.444320524231556   0.125448438733346   1.0000000
B2   B   0.888903114332329   0.944383015932327   0.124962761494899   1.0000000
B2   B   0.722269044817871   0.444544384989464   0.125196580050692   1.0000000
B2   B   0.222273951488033   0.611040829143247   0.624988863117267   1.0000000
B2   B   0.055549897760905   0.111191208304406   0.625050841824349   1.0000000
B2   B   0.555575031588975   0.611160383092534   0.624613831429037   1.0000000
B2   B   0.388788420582809   0.111109350417872   0.624864398046143   1.0000000
B2   B   0.888816350041814   0.611074841687583   0.625023683789065   1.0000000
B2   B   0.055614017080532   0.611202958976192   0.124984097693166   1.0000000
B2   B   0.722228274077934   0.111047037006100   0.625007594735514   1.0000000
B2   B   0.222253710129852   0.111088780934602   0.125050112152082   1.0000000
B2   B   0.388788420582809   0.611012403498280   0.125135601953857   1.0000000
B2   B   0.722269044817871   0.611057993161742   0.125196580050692   1.0000000
B2   B   0.555578458238577   0.111213846759154   0.125047293257579   1.0000000
B2   B   0.388788420582809   0.611012403498280   0.624864398046143   1.0000000
B2   B   0.888739945477206   0.111036639405274   0.124960114404881   1.0000000
B2   B   0.222136133558647   0.777734733445991   0.624994966228763   1.0000000
B2   B   0.055549897760905   0.277692022789835   0.625050841824349   1.0000000
B2   B   0.388945973553863   0.277958782655636   0.624551561266654   1.0000000
B2   B   0.555578458238577   0.777697944812757   0.624952706742420   1.0000000
B2   B   0.888940346262763   0.777881938624379   0.625048706961217   1.0000000
B2   B   0.722110122615534   0.277725496862775   0.624976890230930   1.0000000
B2   B   0.055614017080532   0.777744391437676   0.124984097693166   1.0000000
B2   B   0.388923032254317   0.777850996964765   0.125022543834447   1.0000000
B2   B   0.222079471531859   0.277706402432597   0.125055459365131   1.0000000
B2   B   0.722110122615534   0.777717959086094   0.125023109769071   1.0000000
B2   B   0.555575031588975   0.277747981829770   0.125386168570962   1.0000000
B2   B   0.888903114332329   0.277853431733344   0.124962761494899   1.0000000
B2   B   0.055447611376862   0.444375123290904   0.625031150720125   1.0000000
B2   B   0.222273951488033   0.944566455678129   0.624988863117267   1.0000000
B2   B   0.555427821018110   0.944380577175719   0.624987230230438   1.0000000
B2   B   0.388945973553863   0.444320524231556   0.624551561266654   1.0000000
B2   B   0.888903114332329   0.944383015932327   0.625037238505101   1.0000000
B2   B   0.055447611376862   0.944405821419288   0.124968849279874   1.0000000
B2   B   0.722269044817871   0.444544384989464   0.624803419949308   1.0000000
B2   B   0.388923032254317   0.944405368622887   0.125022543834447   1.0000000
B2   B   0.222253710129852   0.444498262528586   0.125050112152082   1.0000000
B2   B   0.222273951488033   0.611040829143247   0.125011136882733   1.0000000
B2   B   0.555323243082760   0.444328288208048   0.125698996893450   1.0000000
B2   B   0.722228274077934   0.944514570405171   0.124992405264486   1.0000000
B2   B   0.888940346262763   0.444391740971713   0.124951293038776   1.0000000
B2   B   0.055614017080532   0.611202958976192   0.625015902306834   1.0000000
B2   B   0.222253710129852   0.111088780934602   0.624949887847918   1.0000000
B2   B   0.722269044817871   0.611057993161742   0.624803419949308   1.0000000
B2   B   0.555578458238577   0.111213846759154   0.624952706742420   1.0000000
B2   B   0.888739945477206   0.111036639405274   0.625039885595119   1.0000000


