data_1
_audit_creation_method   'vasp2cif'
_cell_length_a    14.93631414619966
_cell_length_b    14.936314146199727
_cell_length_c    13.341276283792837
_cell_angle_alpha    90.0
_cell_angle_beta    90.0
_cell_angle_gamma    119.99999999999984

_symmetry_space_group_name_H-M    'P 1'
loop_
_atom_site_label
_atom_site_type_symbol
_atom_site_fract_x
_atom_site_fract_y
_atom_site_fract_z
_atom_site_occupancy
C2   C   0.441824452667843   0.387578893000586   0.375000000000000   1.0000000
O2   O   0.553125834747883   0.443229584040610   0.375000000000000   1.0000000
N2   N   0.111021765453132   0.055512974460480   0.125081744829029   1.0000000
N2   N   0.610915627697161   0.555415066395929   0.125848581557705   1.0000000
N2   N   0.444380332342991   0.055536444938178   0.125075711399667   1.0000000
N2   N   0.944359533106716   0.555515176026153   0.125031556080822   1.0000000
N2   N   0.777676359217257   0.055504846275296   0.125005684119544   1.0000000
N2   N   0.111044409531418   0.722188871432377   0.625001379342629   1.0000000
N2   N   0.444380332342991   0.722177220738149   0.624924288600333   1.0000000
N2   N   0.277648340514807   0.222168302142137   0.624761083123476   1.0000000
N2   N   0.777672596415567   0.722138595698873   0.624801603725595   1.0000000
N2   N   0.611030290618351   0.222208782187516   0.624843458933191   1.0000000
N2   N   0.944340891360632   0.222175567214470   0.624992509947765   1.0000000
N2   N   0.277722631001526   0.722190678731502   0.125022212352461   1.0000000
N2   N   0.110977392822423   0.222155363077876   0.125024841874464   1.0000000
N2   N   0.444336502651522   0.222182015616527   0.125228855208024   1.0000000
N2   N   0.611030290618351   0.722154841764164   0.125156541066809   1.0000000
N2   N   0.944359533106716   0.722177690413898   0.125031556080822   1.0000000
N2   N   0.777697323140626   0.222206201028957   0.125062179953141   1.0000000
N2   N   0.111045586102749   0.888855680941400   0.624968386422282   1.0000000
N2   N   0.444379231583224   0.888856282458276   0.624967793663938   1.0000000
N2   N   0.277648340514807   0.388813371705998   0.624761083123476   1.0000000
N2   N   0.610915627697161   0.388833894634560   0.624151418442295   1.0000000
N2   N   0.777697323140626   0.888824455444998   0.624937820046858   1.0000000
N2   N   0.944377227413608   0.388865029362854   0.624968267599620   1.0000000
N2   N   0.111021765453132   0.388842124325981   0.125081744829029   1.0000000
N2   N   0.277722631001526   0.888865285603353   0.125022212352461   1.0000000
N2   N   0.611033964314796   0.888841660074427   0.125037921086186   1.0000000
N2   N   0.444295769678123   0.388814551505726   0.124976456459915   1.0000000
N2   N   0.944377227413608   0.888845531384082   0.125031732400380   1.0000000
N2   N   0.777672596415567   0.388867334050029   0.125198396274405   1.0000000
N2   N   0.277700058345583   0.555506993834859   0.624909100612388   1.0000000
N2   N   0.111021765453132   0.055512974460480   0.624918255170971   1.0000000
N2   N   0.610915627697161   0.555415066395929   0.624151418442295   1.0000000
N2   N   0.444380332342991   0.055536444938178   0.624924288600333   1.0000000
N2   N   0.944359533106716   0.555515176026153   0.624968443919178   1.0000000
N2   N   0.111045586102749   0.555523238494684   0.125031613577718   1.0000000
N2   N   0.777676359217257   0.055504846275296   0.624994315880456   1.0000000
N2   N   0.277700058345583   0.055526397844059   0.125090899387612   1.0000000
N2   N   0.444336502651522   0.555487820368331   0.125228855208024   1.0000000
N2   N   0.777636191067225   0.555484762200284   0.125249324550075   1.0000000
N2   N   0.611033964314796   0.055525637573690   0.125037921086186   1.0000000
N2   N   0.444336502651522   0.555487820368331   0.624771144791976   1.0000000
N2   N   0.944340891360632   0.055498657479498   0.125007490052235   1.0000000
N2   N   0.277722631001526   0.722190678731502   0.624977787647539   1.0000000
N2   N   0.110977392822423   0.222155363077876   0.624975158125536   1.0000000
N2   N   0.444336502651522   0.222182015616527   0.624771144791976   1.0000000
N2   N   0.611030290618351   0.722154841764164   0.624843458933191   1.0000000
N2   N   0.944359533106716   0.722177690413898   0.624968443919178   1.0000000
N2   N   0.777697323140626   0.222206201028957   0.624937820046858   1.0000000
N2   N   0.111044409531418   0.722188871432377   0.124998620657371   1.0000000
N2   N   0.444380332342991   0.722177220738149   0.125075711399667   1.0000000
N2   N   0.277648340514807   0.222168302142137   0.125238916876524   1.0000000
N2   N   0.777672596415567   0.722138595698873   0.125198396274405   1.0000000
N2   N   0.611030290618351   0.222208782187516   0.125156541066809   1.0000000
N2   N   0.944340891360632   0.222175567214470   0.125007490052235   1.0000000
N2   N   0.111021765453132   0.388842124325981   0.624918255170971   1.0000000
N2   N   0.277722631001526   0.888865285603353   0.624977787647539   1.0000000
N2   N   0.611033964314796   0.888841660074427   0.624962078913814   1.0000000
N2   N   0.444295769678123   0.388814551505726   0.625023543540085   1.0000000
N2   N   0.944377227413608   0.888845531384082   0.624968267599620   1.0000000
N2   N   0.111045586102749   0.888855680941400   0.125031613577718   1.0000000
N2   N   0.777672596415567   0.388867334050029   0.624801603725595   1.0000000
N2   N   0.444379231583224   0.888856282458276   0.125032206336062   1.0000000
N2   N   0.277648340514807   0.388813371705998   0.125238916876524   1.0000000
N2   N   0.277700058345583   0.555506993834859   0.125090899387612   1.0000000
N2   N   0.610915627697161   0.388833894634560   0.125848581557705   1.0000000
N2   N   0.777697323140626   0.888824455444998   0.125062179953141   1.0000000
N2   N   0.944377227413608   0.388865029362854   0.125031732400380   1.0000000
N2   N   0.111045586102749   0.555523238494684   0.624968386422282   1.0000000
N2   N   0.277700058345583   0.055526397844059   0.624909100612388   1.0000000
N2   N   0.777636191067225   0.555484762200284   0.624750675449925   1.0000000
N2   N   0.611033964314796   0.055525637573690   0.624962078913814   1.0000000
N2   N   0.944340891360632   0.055498657479498   0.624992509947765   1.0000000
N2   N   0.055927618360862   0.111344927909507   0.375000000000000   1.0000000
N2   N   0.555299993250960   0.610256143870275   0.375000000000000   1.0000000
N2   N   0.388933963234480   0.111884708663011   0.375000000000000   1.0000000
N2   N   0.889215537356727   0.611274435345038   0.375000000000000   1.0000000
N2   N   0.722254386231240   0.111201514178779   0.375000000000000   1.0000000
N2   N   0.055583926802065   0.777795805065145   0.875000000000000   1.0000000
N2   N   0.388923669434543   0.777791965083593   0.875000000000000   1.0000000
N2   N   0.222267787108366   0.277800560220851   0.875000000000000   1.0000000
N2   N   0.722271491625426   0.777807142227638   0.875000000000000   1.0000000
N2   N   0.555607305242463   0.277805075068876   0.875000000000000   1.0000000
N2   N   0.888933279817748   0.277799409692676   0.875000000000000   1.0000000
N2   N   0.222391976417740   0.777862654875538   0.375000000000000   1.0000000
N2   N   0.055927618360862   0.277916023784690   0.375000000000000   1.0000000
N2   N   0.390873575218394   0.280788280073560   0.375000000000000   1.0000000
N2   N   0.555533732804665   0.777459828075270   0.375000000000000   1.0000000
N2   N   0.888533861098598   0.777356952306613   0.375000000000000   1.0000000
N2   N   0.721997875558325   0.277990795886211   0.375000000000000   1.0000000
N2   N   0.055600072675681   0.944467234479013   0.875000000000000   1.0000000
N2   N   0.388923669434543   0.944465037684286   0.875000000000000   1.0000000
N2   N   0.222268057648608   0.444466054852303   0.875000000000000   1.0000000
N2   N   0.555610357668435   0.444471845500878   0.875000000000000   1.0000000
N2   N   0.722254452301257   0.944459334873722   0.875000000000000   1.0000000
N2   N   0.888934333217536   0.444459542054181   0.875000000000000   1.0000000
N2   N   0.055798217357119   0.444357389180010   0.375000000000000   1.0000000
N2   N   0.222381404701398   0.944663027550356   0.375000000000000   1.0000000
N2   N   0.555582080674864   0.944457707004096   0.375000000000000   1.0000000
N2   N   0.390873575218394   0.443418628478170   0.375000000000000   1.0000000
N2   N   0.888931426852094   0.944411497219899   0.375000000000000   1.0000000
N2   N   0.721082862022049   0.444834359263175   0.375000000000000   1.0000000
N2   N   0.222257969174234   0.611124588848396   0.875000000000000   1.0000000
N2   N   0.055594705610273   0.111130043683290   0.875000000000000   1.0000000
N2   N   0.555607305242463   0.611135563506915   0.875000000000000   1.0000000
N2   N   0.388934799773678   0.111140104424632   0.875000000000000   1.0000000
N2   N   0.888916677329814   0.611125005331575   0.875000000000000   1.0000000
N2   N   0.055744208652775   0.611171207873373   0.375000000000000   1.0000000
N2   N   0.722254452301257   0.111128450760871   0.875000000000000   1.0000000
N2   N   0.223361352079008   0.112192013685284   0.375000000000000   1.0000000
N2   N   0.388933963234480   0.610382587904811   0.375000000000000   1.0000000
N2   N   0.721082862022049   0.609581836092217   0.375000000000000   1.0000000
N2   N   0.555533732804665   0.111407238062722   0.375000000000000   1.0000000
N2   N   0.388934799773678   0.611128028682381   0.875000000000000   1.0000000
N2   N   0.889099394401564   0.111216363867450   0.375000000000000   1.0000000
N2   N   0.222250094667012   0.777791714000170   0.875000000000000   1.0000000
N2   N   0.055594705610273   0.277797995260319   0.875000000000000   1.0000000
N2   N   0.388940400294536   0.277801715963081   0.875000000000000   1.0000000
N2   N   0.555596223116298   0.777794407504587   0.875000000000000   1.0000000
N2   N   0.888934333217536   0.777808124496691   0.875000000000000   1.0000000
N2   N   0.722271491625426   0.277797682731124   0.875000000000000   1.0000000
N2   N   0.055744208652775   0.777906334112744   0.375000000000000   1.0000000
N2   N   0.388990282528975   0.777624066383657   0.375000000000000   1.0000000
N2   N   0.222698990078724   0.278016161706033   0.375000000000000   1.0000000
N2   N   0.721997875558325   0.777340413005450   0.375000000000000   1.0000000
N2   N   0.555299993250960   0.278377182714028   0.375000000000000   1.0000000
N2   N   0.888931426852094   0.277853262965523   0.375000000000000   1.0000000
N2   N   0.055600072675681   0.444466171529996   0.875000000000000   1.0000000
N2   N   0.222257969174234   0.944466713659173   0.875000000000000   1.0000000
N2   N   0.555583710164625   0.944458521748980   0.875000000000000   1.0000000
N2   N   0.388940400294536   0.444472017664784   0.875000000000000   1.0000000
N2   N   0.888933279817748   0.944467203458408   0.875000000000000   1.0000000
N2   N   0.055798217357119   0.944774161510438   0.375000000000000   1.0000000
N2   N   0.722262115165008   0.444462187984581   0.875000000000000   1.0000000
N2   N   0.388990282528975   0.944699549478653   0.375000000000000   1.0000000
N2   N   0.223361352079008   0.444502671727060   0.375000000000000   1.0000000
N2   N   0.222381404701398   0.611051710484377   0.375000000000000   1.0000000
N2   N   0.722254386231240   0.944386205385797   0.375000000000000   1.0000000
N2   N   0.888533861098598   0.444510242125320   0.375000000000000   1.0000000
N2   N   0.055583926802065   0.611121455070255   0.875000000000000   1.0000000
N2   N   0.222268057648608   0.111135336129640   0.875000000000000   1.0000000
N2   N   0.722262115165008   0.611133260513762   0.875000000000000   1.0000000
N2   N   0.555596223116298   0.111135148945046   0.875000000000000   1.0000000
N2   N   0.888922092534891   0.111127712934113   0.875000000000000   1.0000000
B2   B   0.111768283108328   0.056104514781953   0.375000000000000   1.0000000
B2   B   0.612553453960570   0.558823054189949   0.375000000000000   1.0000000
B2   B   0.444246135931517   0.055759731768030   0.375000000000000   1.0000000
B2   B   0.944902877794594   0.555996142106152   0.375000000000000   1.0000000
B2   B   0.778018597484565   0.055675965408950   0.375000000000000   1.0000000
B2   B   0.111140235660582   0.722236784496952   0.875000000000000   1.0000000
B2   B   0.444480274502752   0.722247295330268   0.875000000000000   1.0000000
B2   B   0.277803568735705   0.222235054918539   0.875000000000000   1.0000000
B2   B   0.777844425908620   0.722277069759007   0.875000000000000   1.0000000
B2   B   0.611169664085078   0.222236466242889   0.875000000000000   1.0000000
B2   B   0.944489942822297   0.222245399158812   0.875000000000000   1.0000000
B2   B   0.277881678927187   0.722178665866208   0.375000000000000   1.0000000
B2   B   0.111590840936225   0.222462087134780   0.375000000000000   1.0000000
B2   B   0.444387105715217   0.222579352202858   0.375000000000000   1.0000000
B2   B   0.611174681004474   0.722456753838654   0.375000000000000   1.0000000
B2   B   0.944902877794594   0.722240069021777   0.375000000000000   1.0000000
B2   B   0.777946853626302   0.222242399985488   0.375000000000000   1.0000000
B2   B   0.111155759525112   0.888915553830811   0.875000000000000   1.0000000
B2   B   0.444475813118291   0.888904573225814   0.875000000000000   1.0000000
B2   B   0.277803568735705   0.388901847150495   0.875000000000000   1.0000000
B2   B   0.611163262215530   0.388897055509312   0.875000000000000   1.0000000
B2   B   0.777838654595565   0.888933931286293   0.875000000000000   1.0000000
B2   B   0.944507531645775   0.388903487145868   0.875000000000000   1.0000000
B2   B   0.111768283108328   0.388997101659704   0.375000000000000   1.0000000
B2   B   0.277881678927187   0.889036346394300   0.375000000000000   1.0000000
B2   B   0.611179891236778   0.888942624641215   0.375000000000000   1.0000000
B2   B   0.944617034618528   0.888990394129882   0.375000000000000   1.0000000
B2   B   0.777758284187968   0.388872169299070   0.375000000000000   1.0000000
B2   B   0.277814967813906   0.555581937606290   0.875000000000000   1.0000000
B2   B   0.111149682017958   0.055575034745462   0.875000000000000   1.0000000
B2   B   0.611163262215530   0.555599540039547   0.875000000000000   1.0000000
B2   B   0.444480274502752   0.055566312505820   0.875000000000000   1.0000000
B2   B   0.944496967972913   0.555576910141214   0.875000000000000   1.0000000
B2   B   0.111324408979083   0.555639455969345   0.375000000000000   1.0000000
B2   B   0.777811491932879   0.055572412633107   0.875000000000000   1.0000000
B2   B   0.277904937038001   0.055649005319655   0.375000000000000   1.0000000
B2   B   0.444387105715217   0.555141086845694   0.375000000000000   1.0000000
B2   B   0.778877573218329   0.556105453275836   0.375000000000000   1.0000000
B2   B   0.611179891236778   0.055570599928892   0.375000000000000   1.0000000
B2   B   0.444480825888645   0.555584608396214   0.875000000000000   1.0000000
B2   B   0.944815773749111   0.055729823462798   0.375000000000000   1.0000000
B2   B   0.277809742010935   0.722234533432300   0.875000000000000   1.0000000
B2   B   0.111144854107850   0.222239093720593   0.875000000000000   1.0000000
B2   B   0.444480825888645   0.222229550825774   0.875000000000000   1.0000000
B2   B   0.611169664085078   0.722266531175511   0.875000000000000   1.0000000
B2   B   0.944496967972913   0.722253391165034   0.875000000000000   1.0000000
B2   B   0.777838654595565   0.222238056642600   0.875000000000000   1.0000000
B2   B   0.111344045347950   0.722338689340639   0.375000000000000   1.0000000
B2   B   0.444246135931517   0.721819737496823   0.375000000000000   1.0000000
B2   B   0.278752490225557   0.223332585901172   0.375000000000000   1.0000000
B2   B   0.777758284187968   0.722219448222227   0.375000000000000   1.0000000
B2   B   0.611174681004474   0.222051260499149   0.375000000000000   1.0000000
B2   B   0.944815773749111   0.222419283619649   0.375000000000000   1.0000000
B2   B   0.111149682017958   0.388907980605817   0.875000000000000   1.0000000
B2   B   0.277809742010935   0.888908541911956   0.875000000000000   1.0000000
B2   B   0.611149228851465   0.888918520753619   0.875000000000000   1.0000000
B2   B   0.444461250066881   0.388897291700105   0.875000000000000   1.0000000
B2   B   0.944507531645775   0.888937377833235   0.875000000000000   1.0000000
B2   B   0.111324408979083   0.889018286343067   0.375000000000000   1.0000000
B2   B   0.777844425908620   0.388900689482934   0.875000000000000   1.0000000
B2   B   0.444469308686222   0.888901321009775   0.375000000000000   1.0000000
B2   B   0.278752490225557   0.388753237657713   0.375000000000000   1.0000000
B2   B   0.277904937038001   0.555589265051674   0.375000000000000   1.0000000
B2   B   0.612553453960570   0.387063733103949   0.375000000000000   1.0000000
B2   B   0.777946853626302   0.889037786974142   0.375000000000000   1.0000000
B2   B   0.944617034618528   0.388959973821975   0.375000000000000   1.0000000
B2   B   0.111155759525112   0.555573539027630   0.875000000000000   1.0000000
B2   B   0.277814967813906   0.055566363540951   0.875000000000000   1.0000000
B2   B   0.777839697033460   0.555586515183398   0.875000000000000   1.0000000
B2   B   0.611149228851465   0.055564041431168   0.875000000000000   1.0000000
B2   B   0.944489942822297   0.055577876996813   0.875000000000000   1.0000000
B2   B   0.055434321451500   0.111032674438334   0.125006627010439   1.0000000
B2   B   0.555353899628462   0.611089765951961   0.125159846906372   1.0000000
B2   B   0.388733706442417   0.110980459991233   0.125104121946263   1.0000000
B2   B   0.888881040259638   0.611107186796490   0.125090790122790   1.0000000
B2   B   0.722126821710647   0.111050246759750   0.124988390172430   1.0000000
B2   B   0.055500573724671   0.777732590977405   0.624968849015688   1.0000000
B2   B   0.388793426293360   0.777732246262916   0.624962693486541   1.0000000
B2   B   0.222051005205923   0.277692169269629   0.624912053772139   1.0000000
B2   B   0.722124809270339   0.777725093368511   0.624978085520642   1.0000000
B2   B   0.555353899628462   0.277597467009838   0.624840153093628   1.0000000
B2   B   0.888823223707160   0.277753079358347   0.625007024947406   1.0000000
B2   B   0.222148031064423   0.777740682198880   0.125017234020869   1.0000000
B2   B   0.055434321451500   0.277734980346502   0.125006627010439   1.0000000
B2   B   0.388657495902805   0.277649171367753   0.125101868702540   1.0000000
B2   B   0.555433932774811   0.777745383482698   0.125002253098805   1.0000000
B2   B   0.888836437152655   0.777739216457407   0.125015785825094   1.0000000
B2   B   0.722124809270339   0.277733049235164   0.125021914479351   1.0000000
B2   B   0.055471650090258   0.944404196568178   0.624970326660518   1.0000000
B2   B   0.388793426293360   0.944394513363779   0.624962693486541   1.0000000
B2   B   0.222075799865300   0.444389217027737   0.624890605927448   1.0000000
B2   B   0.555257515465912   0.444295424399617   0.625379890177014   1.0000000
B2   B   0.722126821710647   0.944409908284232   0.625011609827570   1.0000000
B2   B   0.888836437152655   0.444430554028584   0.624984214174906   1.0000000
B2   B   0.055471650090258   0.444400786855409   0.125029673339482   1.0000000
B2   B   0.222143036994559   0.944390659918185   0.125040695274160   1.0000000
B2   B   0.555467239051224   0.944400286192273   0.125011001743742   1.0000000
B2   B   0.388657495902805   0.444341657868388   0.125101868702540   1.0000000
B2   B   0.888823223707160   0.944403477682156   0.124992975052593   1.0000000
B2   B   0.722152653451272   0.444393127949824   0.125241404849465   1.0000000
B2   B   0.222143036994559   0.611085710409703   0.624959304725840   1.0000000
B2   B   0.055434321451500   0.111032674438334   0.624993372989561   1.0000000
B2   B   0.555353899628462   0.611089765951961   0.624840153093628   1.0000000
B2   B   0.388733706442417   0.110980459991233   0.624895878053737   1.0000000
B2   B   0.888881040259638   0.611107186796490   0.624909209877210   1.0000000
B2   B   0.055500573724671   0.611101316080594   0.125031150984312   1.0000000
B2   B   0.722126821710647   0.111050246759750   0.625011609827570   1.0000000
B2   B   0.222075799865300   0.111019916170899   0.125109394072552   1.0000000
B2   B   0.388733706442417   0.611086579784527   0.125104121946263   1.0000000
B2   B   0.722152653451272   0.611092858834784   0.125241404849465   1.0000000
B2   B   0.555433932774811   0.111021882625449   0.125002253098805   1.0000000
B2   B   0.388733706442417   0.611086579784527   0.624895878053737   1.0000000
B2   B   0.888789599921638   0.111061466627487   0.124975848796535   1.0000000
B2   B   0.222148031064423   0.777740682198880   0.624982765979131   1.0000000
B2   B   0.055434321451500   0.277734980346502   0.624993372989561   1.0000000
B2   B   0.388657495902805   0.277649171367753   0.624898131297459   1.0000000
B2   B   0.555433932774811   0.777745383482698   0.624997746901188   1.0000000
B2   B   0.888836437152655   0.777739216457407   0.624984214174906   1.0000000
B2   B   0.722124809270339   0.277733049235164   0.624978085520642   1.0000000
B2   B   0.055500573724671   0.777732590977405   0.125031150984312   1.0000000
B2   B   0.388793426293360   0.777732246262916   0.125037306513459   1.0000000
B2   B   0.222051005205923   0.277692169269629   0.125087946227861   1.0000000
B2   B   0.722124809270339   0.777725093368511   0.125021914479351   1.0000000
B2   B   0.555353899628462   0.277597467009838   0.125159846906372   1.0000000
B2   B   0.888823223707160   0.277753079358347   0.124992975052593   1.0000000
B2   B   0.055471650090258   0.444400786855409   0.624970326660518   1.0000000
B2   B   0.222143036994559   0.944390659918185   0.624959304725840   1.0000000
B2   B   0.555467239051224   0.944400286192273   0.624988998256258   1.0000000
B2   B   0.388657495902805   0.444341657868388   0.624898131297459   1.0000000
B2   B   0.888823223707160   0.944403477682156   0.625007024947406   1.0000000
B2   B   0.055471650090258   0.944404196568178   0.125029673339482   1.0000000
B2   B   0.722152653451272   0.444393127949824   0.624758595150535   1.0000000
B2   B   0.388793426293360   0.944394513363779   0.125037306513459   1.0000000
B2   B   0.222075799865300   0.444389217027737   0.125109394072552   1.0000000
B2   B   0.222143036994559   0.611085710409703   0.125040695274160   1.0000000
B2   B   0.555257515465912   0.444295424399617   0.124620109822986   1.0000000
B2   B   0.722126821710647   0.944409908284232   0.124988390172430   1.0000000
B2   B   0.888836437152655   0.444430554028584   0.125015785825094   1.0000000
B2   B   0.055500573724671   0.611101316080594   0.624968849015688   1.0000000
B2   B   0.222075799865300   0.111019916170899   0.624890605927448   1.0000000
B2   B   0.722152653451272   0.611092858834784   0.624758595150535   1.0000000
B2   B   0.555433932774811   0.111021882625449   0.624997746901188   1.0000000
B2   B   0.888789599921638   0.111061466627487   0.625024151203465   1.0000000


