data_1
_audit_creation_method   'vasp2cif'
_cell_length_a    17.52789999999977
_cell_length_b    17.52789999999977
_cell_length_c    15.0
_cell_angle_alpha    90.0
_cell_angle_beta    90.0
_cell_angle_gamma    119.99999999999916

_symmetry_space_group_name_H-M    'P 1'
loop_
_atom_site_label
_atom_site_type_symbol
_atom_site_fract_x
_atom_site_fract_y
_atom_site_fract_z
_atom_site_occupancy
B2   B   0.904791509909136   0.952508706310208   0.105319175912294   1.0000000
B2   B   0.904600534879017   0.095188796806659   0.105740638913050   1.0000000
B2   B   0.904600804201722   0.237971642081187   0.105724005645847   1.0000000
B2   B   0.904752806104969   0.380827641721327   0.105386498446666   1.0000000
B2   B   0.905541301522649   0.523884651667581   0.105065453353978   1.0000000
B2   B   0.905588983173640   0.667058962969705   0.105182798691764   1.0000000
B2   B   0.905573879185887   0.810215529894701   0.104939519764468   1.0000000
B2   B   0.047827693283926   0.952578003139640   0.105905687607984   1.0000000
B2   B   0.047481164679842   0.095227229454548   0.106613984900394   1.0000000
B2   B   0.047326102182848   0.237940725102777   0.107409084573084   1.0000000
B2   B   0.047463040467272   0.380825784990908   0.106655996116964   1.0000000
B2   B   0.047794747421900   0.523809029300652   0.105890223269154   1.0000000
B2   B   0.048015757830892   0.666819396379154   0.105694257254212   1.0000000
B2   B   0.048019642955788   0.809761331367514   0.105710299309208   1.0000000
B2   B   0.190549333499622   0.952414034812851   0.106508646384880   1.0000000
B2   B   0.190214050652905   0.095054476928583   0.107688511684906   1.0000000
B2   B   0.190024807854572   0.237900795255814   0.111423911052586   1.0000000
B2   B   0.190012585510509   0.380702189827909   0.111387843324054   1.0000000
B2   B   0.190185749826465   0.523731289075269   0.107503491490849   1.0000000
B2   B   0.190558559436700   0.666710760348978   0.106224454603386   1.0000000
B2   B   0.190654372237054   0.809611698942180   0.106150894353058   1.0000000
B2   B   0.333343388501211   0.952371699405255   0.105769404194595   1.0000000
B2   B   0.333137848879682   0.095083483593537   0.108273285749836   1.0000000
B2   B   0.332156616607369   0.237220109448328   0.116528389612282   1.0000000
B2   B   0.332148471193642   0.380385023864341   0.126619548869108   1.0000000
B2   B   0.332137734545124   0.523510874932667   0.116259647245788   1.0000000
B2   B   0.333160869308070   0.666625409519932   0.107786396709440   1.0000000
B2   B   0.333354126417214   0.809548557531981   0.105525742129108   1.0000000
B2   B   0.476133898234257   0.952355559648223   0.104714947714637   1.0000000
B2   B   0.476048858899902   0.095086826650943   0.105550381085495   1.0000000
B2   B   0.475750348045802   0.237457942264846   0.112367708183144   1.0000000
B2   B   0.471791177472719   0.372239719259169   0.149717566133045   1.0000000
B2   B   0.471799198142929   0.528231464614031   0.149490186478335   1.0000000
B2   B   0.475760905388705   0.666856543518150   0.111898938161360   1.0000000
B2   B   0.476074190973253   0.809549265796158   0.105210242994992   1.0000000
B2   B   0.618938159350914   0.952355844939729   0.104629877793331   1.0000000
B2   B   0.618915028363790   0.095130897652087   0.104729633181280   1.0000000
B2   B   0.618883146342728   0.237835090474441   0.106773782574679   1.0000000
B2   B   0.618521685706575   0.379913818865098   0.117484402771884   1.0000000
B2   B   0.633054994043127   0.530816833256775   0.133344912304845   1.0000000
B2   B   0.618551404027501   0.667200302699198   0.117207927772309   1.0000000
B2   B   0.618915246517707   0.809614991714896   0.106517119164883   1.0000000
B2   B   0.761814990965325   0.952433434224552   0.105200467565807   1.0000000
B2   B   0.761770892895360   0.095161254739875   0.105076770060925   1.0000000
B2   B   0.761784616240556   0.237905670085843   0.105262548339571   1.0000000
B2   B   0.761879356032731   0.380641796112657   0.106438524784601   1.0000000
B2   B   0.764025241277043   0.524062772436104   0.108564220661832   1.0000000
B2   B   0.764042463855074   0.668514879557193   0.108469657191500   1.0000000
B2   B   0.761920714535280   0.809815936160867   0.106279810294214   1.0000000
N2   N   0.952679148142780   0.905120941039663   0.105253324091102   1.0000000
N2   N   0.952250364468481   0.047617553500358   0.105760952180716   1.0000000
N2   N   0.952152913807800   0.190356707114539   0.106147591617533   1.0000000
N2   N   0.952230924181772   0.333191326251919   0.105793689020826   1.0000000
N2   N   0.952648866261424   0.476099260227988   0.105350249840131   1.0000000
N2   N   0.952791989492517   0.619144017838634   0.105126428720687   1.0000000
N2   N   0.952800060109523   0.762191019412334   0.105057332511657   1.0000000
N2   N   0.095361107876959   0.904869625962638   0.106099221043858   1.0000000
N2   N   0.095101046542159   0.047609512336210   0.106479685456557   1.0000000
N2   N   0.094933272543709   0.190383664219739   0.107959563430059   1.0000000
N2   N   0.094917645775646   0.333115167241894   0.107988529749654   1.0000000
N2   N   0.095075077293308   0.476060253221222   0.106454072268889   1.0000000
N2   N   0.095358939889748   0.619056064201052   0.105987650483573   1.0000000
N2   N   0.095448797084426   0.762006414809349   0.106039587863269   1.0000000
N2   N   0.238140367962077   0.904781355405105   0.106255837638081   1.0000000
N2   N   0.237941110065887   0.047524541251594   0.107307765598294   1.0000000
N2   N   0.237391110514143   0.190075014067118   0.110295624387997   1.0000000
N2   N   0.237680179844305   0.333136095911601   0.115666593988249   1.0000000
N2   N   0.237366811166772   0.475891057656509   0.110150663987035   1.0000000
N2   N   0.237948186661731   0.618989533043009   0.106931175386929   1.0000000
N2   N   0.238148186936735   0.761933008307599   0.106038994400401   1.0000000
N2   N   0.380943008475146   0.904757900625794   0.105155561305517   1.0000000
N2   N   0.380862042815555   0.047556948175606   0.106154914985794   1.0000000
N2   N   0.380485039696544   0.190134605340779   0.112332206052619   1.0000000
N2   N   0.378777668282527   0.331349620271284   0.130477572062359   1.0000000
N2   N   0.378779335564523   0.476044910799206   0.130290417727345   1.0000000
N2   N   0.380491978614417   0.618916325609056   0.111856468107281   1.0000000
N2   N   0.380878605615613   0.761881222715578   0.105720763978177   1.0000000
N2   N   0.523746526497956   0.904753188234894   0.104521038336158   1.0000000
N2   N   0.523730387657915   0.047560711508717   0.104669319322037   1.0000000
N2   N   0.523652617753026   0.190311403143665   0.106623479504992   1.0000000
N2   N   0.523271084276762   0.332441145370237   0.122286477170934   1.0000000
N2   N   0.523294719394720   0.619430038379798   0.121880376778649   1.0000000
N2   N   0.523675637159925   0.761919022190575   0.106233051270222   1.0000000
N2   N   0.666592223313787   0.904753698618775   0.105008014005558   1.0000000
N2   N   0.666561317814251   0.047563490979258   0.104677144082769   1.0000000
N2   N   0.666566063841962   0.190379460403385   0.105144390502301   1.0000000
N2   N   0.666506547401852   0.333154481149232   0.108918416348817   1.0000000
N2   N   0.668640193287998   0.475848664460308   0.117158009921291   1.0000000
N2   N   0.668649548469494   0.621355064088286   0.117022951375555   1.0000000
N2   N   0.666547476586413   0.761935310015907   0.108667012629723   1.0000000
N2   N   0.809481283305769   0.904854157037483   0.105206312402201   1.0000000
N2   N   0.809388779954336   0.047571887589587   0.105295719139748   1.0000000
N2   N   0.809384427023096   0.190366019912576   0.105295304807433   1.0000000
N2   N   0.809441360357192   0.333159914751067   0.105300248984080   1.0000000
N2   N   0.810384798548210   0.476042667787291   0.105584224591282   1.0000000
N2   N   0.810284768172797   0.619410855732432   0.106560915195890   1.0000000
N2   N   0.810410692181712   0.762902632668690   0.105431812219730   1.0000000
Sb2   Sb   0.522896628030654   0.475907706373383   0.258525927153465   1.0000000


