data_1
_audit_creation_method   'vasp2cif'
_cell_length_a    14.93631414619966
_cell_length_b    14.936314146199727
_cell_length_c    13.341276283792837
_cell_angle_alpha    90.0
_cell_angle_beta    90.0
_cell_angle_gamma    119.99999999999984

_symmetry_space_group_name_H-M    'P 1'
loop_
_atom_site_label
_atom_site_type_symbol
_atom_site_fract_x
_atom_site_fract_y
_atom_site_fract_z
_atom_site_occupancy
C2   C   0.453967647608149   0.393650490470737   0.375000000000000   1.0000000
N2   N   0.111047953138321   0.055510986972499   0.125213109235009   1.0000000
N2   N   0.611035808825871   0.555501689917097   0.126170339554776   1.0000000
N2   N   0.444385400626195   0.055527361318222   0.125254927184329   1.0000000
N2   N   0.944378385047669   0.555531397220475   0.125302632377739   1.0000000
N2   N   0.777713891972806   0.055523612653067   0.125203549073041   1.0000000
N2   N   0.111050313175279   0.722191823254312   0.624833969028849   1.0000000
N2   N   0.444385400626195   0.722191372641308   0.624745072815671   1.0000000
N2   N   0.277717554808146   0.222193347764513   0.624985114776408   1.0000000
N2   N   0.777702194277957   0.722157169144242   0.624309638156707   1.0000000
N2   N   0.611042181005249   0.222209321544617   0.624437705339103   1.0000000
N2   N   0.944381178129285   0.222200655487325   0.624792282015652   1.0000000
N2   N   0.277720052795052   0.722198155180467   0.125181451572145   1.0000000
N2   N   0.111043341628103   0.222188337480719   0.125168273310206   1.0000000
N2   N   0.444388787010571   0.222199916596777   0.125238088619782   1.0000000
N2   N   0.611042181005249   0.722166192793975   0.125562294660903   1.0000000
N2   N   0.944378385047669   0.722180321160518   0.125302632377739   1.0000000
N2   N   0.777712848861699   0.222210517159752   0.125304085518305   1.0000000
N2   N   0.111049049368212   0.888846256901444   0.624832741092911   1.0000000
N2   N   0.444386716949900   0.888860025141618   0.624790389101241   1.0000000
N2   N   0.277717554808146   0.388857540376956   0.624985114776408   1.0000000
N2   N   0.611035808825871   0.388867452242117   0.623829660445227   1.0000000
N2   N   0.777712848861699   0.888835665035266   0.624695914481693   1.0000000
N2   N   0.944381381784196   0.388877939983617   0.624765069985745   1.0000000
N2   N   0.111047953138321   0.388870299499141   0.125213109235009   1.0000000
N2   N   0.277720052795052   0.888855230947908   0.125181451572145   1.0000000
N2   N   0.611046562896991   0.888850568259986   0.125239508914885   1.0000000
N2   N   0.444350635496630   0.388841984414979   0.124358840151873   1.0000000
N2   N   0.944381381784196   0.888836775133877   0.125234930014262   1.0000000
N2   N   0.777702194277957   0.388878358467027   0.125690361843299   1.0000000
N2   N   0.277716610147162   0.555533296001864   0.624860631877916   1.0000000
N2   N   0.111047953138321   0.055510986972499   0.624786890765000   1.0000000
N2   N   0.611035808825871   0.555501689917097   0.623829660445227   1.0000000
N2   N   0.444385400626195   0.055527361318222   0.624745072815671   1.0000000
N2   N   0.944378385047669   0.555531397220475   0.624697367622263   1.0000000
N2   N   0.111049049368212   0.555536125800117   0.125167258907068   1.0000000
N2   N   0.777713891972806   0.055523612653067   0.624796450926952   1.0000000
N2   N   0.277716610147162   0.055516647478639   0.125139368122091   1.0000000
N2   N   0.444388787010571   0.555522203747124   0.125238088619782   1.0000000
N2   N   0.777705613170934   0.555519473252132   0.125952882254424   1.0000000
N2   N   0.611046562896991   0.055529327970329   0.125239508914885   1.0000000
N2   N   0.444388787010571   0.555522203747124   0.624761911380218   1.0000000
N2   N   0.944381178129285   0.055513855975287   0.125207717984345   1.0000000
N2   N   0.277720052795052   0.722198155180467   0.624818548427857   1.0000000
N2   N   0.111043341628103   0.222188337480719   0.624831726689809   1.0000000
N2   N   0.444388787010571   0.222199916596777   0.624761911380218   1.0000000
N2   N   0.611042181005249   0.722166192793975   0.624437705339103   1.0000000
N2   N   0.944378385047669   0.722180321160518   0.624697367622263   1.0000000
N2   N   0.777712848861699   0.222210517159752   0.624695914481693   1.0000000
N2   N   0.111050313175279   0.722191823254312   0.125166030971166   1.0000000
N2   N   0.444385400626195   0.722191372641308   0.125254927184329   1.0000000
N2   N   0.277717554808146   0.222193347764513   0.125014885223592   1.0000000
N2   N   0.777702194277957   0.722157169144242   0.125690361843299   1.0000000
N2   N   0.611042181005249   0.222209321544617   0.125562294660903   1.0000000
N2   N   0.944381178129285   0.222200655487325   0.125207717984345   1.0000000
N2   N   0.111047953138321   0.388870299499141   0.624786890765000   1.0000000
N2   N   0.277720052795052   0.888855230947908   0.624818548427857   1.0000000
N2   N   0.611046562896991   0.888850568259986   0.624760491085130   1.0000000
N2   N   0.444350635496630   0.388841984414979   0.625641159848128   1.0000000
N2   N   0.944381381784196   0.888836775133877   0.624765069985745   1.0000000
N2   N   0.111049049368212   0.888846256901444   0.125167258907068   1.0000000
N2   N   0.777702194277957   0.388878358467027   0.624309638156707   1.0000000
N2   N   0.444386716949900   0.888860025141618   0.125209610898743   1.0000000
N2   N   0.277717554808146   0.388857540376956   0.125014885223592   1.0000000
N2   N   0.277716610147162   0.555533296001864   0.125139368122091   1.0000000
N2   N   0.611035808825871   0.388867452242117   0.126170339554776   1.0000000
N2   N   0.777712848861699   0.888835665035266   0.125304085518305   1.0000000
N2   N   0.944381381784196   0.388877939983617   0.125234930014262   1.0000000
N2   N   0.111049049368212   0.555536125800117   0.624832741092911   1.0000000
N2   N   0.277716610147162   0.055516647478639   0.624860631877916   1.0000000
N2   N   0.777705613170934   0.555519473252132   0.624047117745590   1.0000000
N2   N   0.611046562896991   0.055529327970329   0.624760491085130   1.0000000
N2   N   0.944381178129285   0.055513855975287   0.624792282015652   1.0000000
N2   N   0.056249095313114   0.111676855060014   0.375000000000000   1.0000000
N2   N   0.554071467384662   0.608598506888671   0.375000000000000   1.0000000
N2   N   0.388847155596710   0.112600564279829   0.375000000000000   1.0000000
N2   N   0.887969053207371   0.610651193270359   0.375000000000000   1.0000000
N2   N   0.721849252856148   0.111076166427367   0.375000000000000   1.0000000
N2   N   0.055511635499523   0.777757562303834   0.875000000000000   1.0000000
N2   N   0.388853357141604   0.777759599761142   0.875000000000000   1.0000000
N2   N   0.222179006234087   0.277756169783703   0.875000000000000   1.0000000
N2   N   0.722183050118462   0.777755696010867   0.875000000000000   1.0000000
N2   N   0.555519074370091   0.277763488014516   0.875000000000000   1.0000000
N2   N   0.888848968278822   0.277759125249795   0.875000000000000   1.0000000
N2   N   0.221823836780766   0.777578585057039   0.375000000000000   1.0000000
N2   N   0.056249095313114   0.277905573586431   0.375000000000000   1.0000000
N2   N   0.395371578567260   0.285934940887543   0.375000000000000   1.0000000
N2   N   0.555035888319755   0.776839802639671   0.375000000000000   1.0000000
N2   N   0.887749247200805   0.776964473352515   0.375000000000000   1.0000000
N2   N   0.721346434565583   0.277851311240060   0.375000000000000   1.0000000
N2   N   0.055511275835212   0.944423341037582   0.875000000000000   1.0000000
N2   N   0.388853357141604   0.944427090713776   0.875000000000000   1.0000000
N2   N   0.222178559537453   0.444421932258468   0.875000000000000   1.0000000
N2   N   0.555522112509112   0.444427722921224   0.875000000000000   1.0000000
N2   N   0.722182524182646   0.944423500260486   0.875000000000000   1.0000000
N2   N   0.888847777613038   0.444424147348814   0.875000000000000   1.0000000
N2   N   0.055941500787020   0.444065782542370   0.375000000000000   1.0000000
N2   N   0.222147434957998   0.944949825869239   0.375000000000000   1.0000000
N2   N   0.555144126215902   0.944238729774617   0.375000000000000   1.0000000
N2   N   0.395371578567262   0.442769971013054   0.375000000000000   1.0000000
N2   N   0.888679760047539   0.944333569123673   0.375000000000000   1.0000000
N2   N   0.719228034325817   0.444839392143333   0.375000000000000   1.0000000
N2   N   0.222179709247879   0.611088464797004   0.875000000000000   1.0000000
N2   N   0.055511237929527   0.111088338009688   0.875000000000000   1.0000000
N2   N   0.555519074370091   0.611088919688905   0.875000000000000   1.0000000
N2   N   0.388850808640794   0.111093748538271   0.875000000000000   1.0000000
N2   N   0.888846342588551   0.611089837960947   0.875000000000000   1.0000000
N2   N   0.055021446367613   0.610656134856273   0.375000000000000   1.0000000
N2   N   0.722182524182646   0.111092357255490   0.875000000000000   1.0000000
N2   N   0.224809713285730   0.113979671446791   0.375000000000000   1.0000000
N2   N   0.388847155596710   0.609579924650219   0.375000000000000   1.0000000
N2   N   0.719228034325821   0.607721975515825   0.375000000000000   1.0000000
N2   N   0.555035888319755   0.111529419013425   0.375000000000000   1.0000000
N2   N   0.388850808640794   0.611090393435874   0.875000000000000   1.0000000
N2   N   0.888935966683102   0.111134650008221   0.375000000000000   1.0000000
N2   N   0.222181953705388   0.777757643519337   0.875000000000000   1.0000000
N2   N   0.055511237929527   0.277756233253178   0.875000000000000   1.0000000
N2   N   0.388850704895474   0.277757641154784   0.875000000000000   1.0000000
N2   N   0.555518523127380   0.777757035072137   0.875000000000000   1.0000000
N2   N   0.888847777613038   0.777756963597568   0.875000000000000   1.0000000
N2   N   0.722183050118462   0.277760687440921   0.875000000000000   1.0000000
N2   N   0.055021446367613   0.777698644844650   0.375000000000000   1.0000000
N2   N   0.388583384378709   0.777180444607494   0.375000000000000   1.0000000
N2   N   0.223920590414147   0.278626961873749   0.375000000000000   1.0000000
N2   N   0.721346434565583   0.776828456658852   0.375000000000000   1.0000000
N2   N   0.554071467384662   0.278806293829317   0.375000000000000   1.0000000
N2   N   0.888679760047539   0.277679524257213   0.375000000000000   1.0000000
N2   N   0.055511275835212   0.444421268130973   0.875000000000000   1.0000000
N2   N   0.222179709247879   0.944424577784220   0.875000000000000   1.0000000
N2   N   0.555518841624141   0.944426087478727   0.875000000000000   1.0000000
N2   N   0.388850704895474   0.444426397074038   0.875000000000000   1.0000000
N2   N   0.888848968278822   0.944423176362350   0.875000000000000   1.0000000
N2   N   0.055941500787020   0.945209051577981   0.375000000000000   1.0000000
N2   N   0.722182192851270   0.444426187512738   0.875000000000000   1.0000000
N2   N   0.388583384378709   0.944736273104549   0.375000000000000   1.0000000
N2   N   0.224809713285730   0.444163375172273   0.375000000000000   1.0000000
N2   N   0.222147434957998   0.610530942422100   0.375000000000000   1.0000000
N2   N   0.721849252856148   0.944106419762115   0.375000000000000   1.0000000
N2   N   0.887749247200805   0.444118107181618   0.375000000000000   1.0000000
N2   N   0.055511635499523   0.611087406529022   0.875000000000000   1.0000000
N2   N   0.222178559537453   0.111089960612315   0.875000000000000   1.0000000
N2   N   0.722182192851270   0.611089338671851   0.875000000000000   1.0000000
N2   N   0.555518523127380   0.111094821388573   0.875000000000000   1.0000000
N2   N   0.888848800291507   0.111091066812426   0.875000000000000   1.0000000
B2   B   0.112324378821665   0.056842560232335   0.375000000000000   1.0000000
B2   B   0.610705811127199   0.557982576726368   0.375000000000000   1.0000000
B2   B   0.443926860019053   0.055848663466866   0.375000000000000   1.0000000
B2   B   0.944050254868152   0.555261065159198   0.375000000000000   1.0000000
B2   B   0.777662598773956   0.055497966053642   0.375000000000000   1.0000000
B2   B   0.111074723962749   0.722204028648030   0.875000000000000   1.0000000
B2   B   0.444402648212913   0.722216456997575   0.875000000000000   1.0000000
B2   B   0.277711965466745   0.222182983528785   0.875000000000000   1.0000000
B2   B   0.777758154629828   0.722225682268837   0.875000000000000   1.0000000
B2   B   0.611081193847931   0.222188090981324   0.875000000000000   1.0000000
B2   B   0.944398358907946   0.222195361983496   0.875000000000000   1.0000000
B2   B   0.277354327661515   0.721844780621205   0.375000000000000   1.0000000
B2   B   0.111738198599531   0.222535765966431   0.375000000000000   1.0000000
B2   B   0.443899828439400   0.223024328186769   0.375000000000000   1.0000000
B2   B   0.610854982674430   0.722230850635653   0.375000000000000   1.0000000
B2   B   0.944050254868152   0.722122523042306   0.375000000000000   1.0000000
B2   B   0.777575745895925   0.222050103749588   0.375000000000000   1.0000000
B2   B   0.111067438950495   0.888867430188397   0.875000000000000   1.0000000
B2   B   0.444407824495408   0.888870578914375   0.875000000000000   1.0000000
B2   B   0.277711965466745   0.388862315271293   0.875000000000000   1.0000000
B2   B   0.611081988139441   0.388868792998635   0.875000000000000   1.0000000
B2   B   0.777749571548436   0.888888849579002   0.875000000000000   1.0000000
B2   B   0.944410293079282   0.388863189622792   0.875000000000000   1.0000000
B2   B   0.112324378821666   0.388815151922661   0.375000000000000   1.0000000
B2   B   0.277354327661515   0.888842880373638   0.375000000000000   1.0000000
B2   B   0.610761262997739   0.888663229053655   0.375000000000000   1.0000000
B2   B   0.944342342908903   0.889011503074283   0.375000000000000   1.0000000
B2   B   0.776773738341781   0.388400042728820   0.375000000000000   1.0000000
B2   B   0.277721422192250   0.555538165104936   0.875000000000000   1.0000000
B2   B   0.111051998978838   0.055524734065249   0.875000000000000   1.0000000
B2   B   0.611081988139441   0.555546528474136   0.875000000000000   1.0000000
B2   B   0.444402648212913   0.055519524548683   0.875000000000000   1.0000000
B2   B   0.944420349428670   0.555538812641048   0.875000000000000   1.0000000
B2   B   0.110914494199454   0.555182512608157   0.375000000000000   1.0000000
B2   B   0.777744342365141   0.055538837849231   0.875000000000000   1.0000000
B2   B   0.277778823958007   0.055984317958604   0.375000000000000   1.0000000
B2   B   0.443899828439400   0.554208833585963   0.375000000000000   1.0000000
B2   B   0.777847197481779   0.555590265407567   0.375000000000000   1.0000000
B2   B   0.610761262997739   0.055431367277407   0.375000000000000   1.0000000
B2   B   0.444395067509342   0.555545684010817   0.875000000000000   1.0000000
B2   B   0.944644614261809   0.055716876167930   0.375000000000000   1.0000000
B2   B   0.277734664338288   0.722204970762957   0.875000000000000   1.0000000
B2   B   0.111044577074031   0.222188955203682   0.875000000000000   1.0000000
B2   B   0.444395067509342   0.222182716831855   0.875000000000000   1.0000000
B2   B   0.611081193847931   0.722226436199933   0.875000000000000   1.0000000
B2   B   0.944420349428670   0.722214870120963   0.875000000000000   1.0000000
B2   B   0.777749571548436   0.222194055302764   0.875000000000000   1.0000000
B2   B   0.110646185627665   0.721989759480491   0.375000000000000   1.0000000
B2   B   0.443926860019053   0.721411529885518   0.375000000000000   1.0000000
B2   B   0.280690734109699   0.225449051127476   0.375000000000000   1.0000000
B2   B   0.776773738341780   0.721707028946284   0.375000000000000   1.0000000
B2   B   0.610854982674430   0.221957465372098   0.375000000000000   1.0000000
B2   B   0.944644614261809   0.222261071427195   0.375000000000000   1.0000000
B2   B   0.111051998978838   0.388860598246912   0.875000000000000   1.0000000
B2   B   0.277734664338288   0.888863026908650   0.875000000000000   1.0000000
B2   B   0.611079594215993   0.888882592926082   0.875000000000000   1.0000000
B2   B   0.444396617495539   0.388864975414440   0.875000000000000   1.0000000
B2   B   0.944410293079282   0.888880436789824   0.875000000000000   1.0000000
B2   B   0.110914494199454   0.889065314924628   0.375000000000000   1.0000000
B2   B   0.777758154629828   0.388865805694338   0.875000000000000   1.0000000
B2   B   0.443976214195673   0.888654773764487   0.375000000000000   1.0000000
B2   B   0.280690734109699   0.388575016315549   0.375000000000000   1.0000000
B2   B   0.277778823958007   0.555127839332742   0.375000000000000   1.0000000
B2   B   0.610705811127199   0.386056567734154   0.375000000000000   1.0000000
B2   B   0.777575745895925   0.888858975479647   0.375000000000000   1.0000000
B2   B   0.944342342908903   0.388664173167944   0.375000000000000   1.0000000
B2   B   0.111067438950495   0.555533342095425   0.875000000000000   1.0000000
B2   B   0.277721422192250   0.055516590420656   0.875000000000000   1.0000000
B2   B   0.777760913826522   0.555547123579943   0.875000000000000   1.0000000
B2   B   0.611079594215993   0.055530334623254   0.875000000000000   1.0000000
B2   B   0.944398358907946   0.055536330257779   0.875000000000000   1.0000000
B2   B   0.055459123952717   0.111041891085076   0.124947236279617   1.0000000
B2   B   0.555487740328071   0.611129213501267   0.125092295044850   1.0000000
B2   B   0.388777342278821   0.110976115503960   0.124840277557538   1.0000000
B2   B   0.888916591635834   0.611124962484591   0.125159257505477   1.0000000
B2   B   0.722168602140495   0.111069268175105   0.124992202099569   1.0000000
B2   B   0.055535626730754   0.777752907080938   0.625024916259268   1.0000000
B2   B   0.388796225509258   0.777769585345759   0.625022964379102   1.0000000
B2   B   0.222077984261169   0.277705658797260   0.625369034967318   1.0000000
B2   B   0.722203318452156   0.777798104980901   0.624846218346877   1.0000000
B2   B   0.555487740328071   0.277691860160162   0.624907704955141   1.0000000
B2   B   0.888852950226504   0.277765608515515   0.624998881424065   1.0000000
B2   B   0.222156617611362   0.777744975472350   0.124971645809114   1.0000000
B2   B   0.055459123952717   0.277750566200980   0.124947236279617   1.0000000
B2   B   0.388790945201519   0.277729909372274   0.124292600288857   1.0000000
B2   B   0.555478505613125   0.777797637809036   0.125008726018658   1.0000000
B2   B   0.888892142157988   0.777777287001712   0.125096397912381   1.0000000
B2   B   0.722203318452156   0.277738546804604   0.125153781653120   1.0000000
B2   B   0.055498317016419   0.944380299255121   0.625024465295274   1.0000000
B2   B   0.388796225509258   0.944359973496815   0.625022964379102   1.0000000
B2   B   0.222096034332111   0.444441252489187   0.625182059399741   1.0000000
B2   B   0.555413446954347   0.444373390143834   0.624645689598005   1.0000000
B2   B   0.722168602140495   0.944432667298733   0.625007797900445   1.0000000
B2   B   0.888892142157988   0.444448188489601   0.624903602087623   1.0000000
B2   B   0.055498317016419   0.444451351094632   0.124975534704730   1.0000000
B2   B   0.222135077858493   0.944346525321721   0.124934713660688   1.0000000
B2   B   0.555476197056025   0.944404765194674   0.124977589912508   1.0000000
B2   B   0.388790945201519   0.444394369162569   0.124292600288857   1.0000000
B2   B   0.888852950226504   0.944420675044328   0.125001118575930   1.0000000
B2   B   0.722222100868146   0.444441157177928   0.125526935911368   1.0000000
B2   B   0.222135077858493   0.611121885870108   0.625065286339296   1.0000000
B2   B   0.055459123952717   0.111041891085076   0.625052763720375   1.0000000
B2   B   0.555487740328071   0.611129213501267   0.624907704955141   1.0000000
B2   B   0.388777342278821   0.110976115503960   0.625159722442463   1.0000000
B2   B   0.888916591635834   0.611124962484591   0.624840742494525   1.0000000
B2   B   0.055535626730754   0.611116052983150   0.124975083740740   1.0000000
B2   B   0.722168602140495   0.111069268175105   0.625007797900445   1.0000000
B2   B   0.222096034332111   0.110988115176258   0.124817940600258   1.0000000
B2   B   0.388777342278821   0.611134560108206   0.124840277557538   1.0000000
B2   B   0.722222100868146   0.611114277023577   0.125526935911368   1.0000000
B2   B   0.555478505613125   0.111014201137422   0.125008726018658   1.0000000
B2   B   0.388777342278821   0.611134560108206   0.625159722442463   1.0000000
B2   B   0.888828330696786   0.111080832015058   0.124979050096355   1.0000000
B2   B   0.222156617611362   0.777744975472350   0.625028354190885   1.0000000
B2   B   0.055459123952717   0.277750566200980   0.625052763720375   1.0000000
B2   B   0.388790945201519   0.277729909372274   0.625707399711137   1.0000000
B2   B   0.555478505613125   0.777797637809036   0.624991273981333   1.0000000
B2   B   0.888892142157988   0.777777287001712   0.624903602087623   1.0000000
B2   B   0.722203318452156   0.277738546804604   0.624846218346877   1.0000000
B2   B   0.055535626730754   0.777752907080938   0.124975083740740   1.0000000
B2   B   0.388796225509258   0.777769585345759   0.124977035620897   1.0000000
B2   B   0.222077984261169   0.277705658797260   0.124630965032680   1.0000000
B2   B   0.722203318452156   0.777798104980901   0.125153781653120   1.0000000
B2   B   0.555487740328071   0.277691860160162   0.125092295044850   1.0000000
B2   B   0.888852950226504   0.277765608515515   0.125001118575930   1.0000000
B2   B   0.055498317016419   0.444451351094632   0.625024465295274   1.0000000
B2   B   0.222135077858493   0.944346525321721   0.625065286339296   1.0000000
B2   B   0.555476197056025   0.944404765194674   0.625022410087475   1.0000000
B2   B   0.388790945201519   0.444394369162569   0.625707399711137   1.0000000
B2   B   0.888852950226504   0.944420675044328   0.624998881424065   1.0000000
B2   B   0.055498317016419   0.944380299255121   0.124975534704730   1.0000000
B2   B   0.722222100868146   0.444441157177928   0.624473064088619   1.0000000
B2   B   0.388796225509258   0.944359973496815   0.124977035620897   1.0000000
B2   B   0.222096034332111   0.444441252489187   0.124817940600258   1.0000000
B2   B   0.222135077858493   0.611121885870108   0.124934713660688   1.0000000
B2   B   0.555413446954347   0.444373390143834   0.125354310401993   1.0000000
B2   B   0.722168602140495   0.944432667298733   0.124992202099569   1.0000000
B2   B   0.888892142157988   0.444448188489601   0.125096397912381   1.0000000
B2   B   0.055535626730754   0.611116052983150   0.625024916259268   1.0000000
B2   B   0.222096034332111   0.110988115176258   0.625182059399741   1.0000000
B2   B   0.722222100868146   0.611114277023577   0.624473064088619   1.0000000
B2   B   0.555478505613125   0.111014201137422   0.624991273981333   1.0000000
B2   B   0.888828330696786   0.111080832015058   0.625020949903654   1.0000000


