data_1
_audit_creation_method   'vasp2cif'
_cell_length_a    14.93631414619966
_cell_length_b    14.936314146199727
_cell_length_c    13.341276283792837
_cell_angle_alpha    90.0
_cell_angle_beta    90.0
_cell_angle_gamma    119.99999999999984

_symmetry_space_group_name_H-M    'P 1'
loop_
_atom_site_label
_atom_site_type_symbol
_atom_site_fract_x
_atom_site_fract_y
_atom_site_fract_z
_atom_site_occupancy
Ga2   Ga   0.484435461177098   0.408884397255217   0.375000000000000   1.0000000
N2   N   0.111190510995868   0.055588895808307   0.124941245069498   1.0000000
N2   N   0.611231261292983   0.555685106527171   0.124451760680524   1.0000000
N2   N   0.444529698996267   0.055572146455786   0.124927448108990   1.0000000
N2   N   0.944507021187839   0.555583999663814   0.125063509332968   1.0000000
N2   N   0.777871258223164   0.055602295778250   0.124992614828281   1.0000000
N2   N   0.111173284538309   0.722253308935819   0.624978436137930   1.0000000
N2   N   0.444529698996267   0.722290885873817   0.625072551891010   1.0000000
N2   N   0.277851864907718   0.222245206715704   0.624797589211571   1.0000000
N2   N   0.777860336501486   0.722284676538029   0.625070230536418   1.0000000
N2   N   0.611199961524563   0.222222463582659   0.625170024329289   1.0000000
N2   N   0.944536088812742   0.222266019818454   0.625025566902072   1.0000000
N2   N   0.277850568044665   0.722265214737614   0.124991713899311   1.0000000
N2   N   0.111203860458360   0.222268596895841   0.125011971636144   1.0000000
N2   N   0.444546159778270   0.222236735692382   0.125052710987117   1.0000000
N2   N   0.611199961524563   0.722310831275234   0.124829975670711   1.0000000
N2   N   0.944507021187839   0.722256354857368   0.125063509332968   1.0000000
N2   N   0.777866703683873   0.222249299667180   0.124994464174894   1.0000000
N2   N   0.111179602811913   0.888919763854714   0.625011673568817   1.0000000
N2   N   0.444524845843121   0.888929089588228   0.625007478747482   1.0000000
N2   N   0.277851864907718   0.388939991525335   0.624797589211571   1.0000000
N2   N   0.611231261292983   0.388879488099140   0.625548239319476   1.0000000
N2   N   0.777866703683873   0.888950737350022   0.625005535825106   1.0000000
N2   N   0.944524032093320   0.388923216625357   0.624980631114096   1.0000000
N2   N   0.111190510995868   0.388934948520889   0.124941245069498   1.0000000
N2   N   0.277850568044665   0.888918686640373   0.124991713899311   1.0000000
N2   N   0.611198218103486   0.888951154017065   0.124982605564046   1.0000000
N2   N   0.444514929614608   0.388924131473965   0.126480427137053   1.0000000
N2   N   0.944524032093320   0.888934148801292   0.125019368885904   1.0000000
N2   N   0.777860336501486   0.388908993296786   0.124929769463583   1.0000000
N2   N   0.277859862186590   0.555611865802549   0.625021622072530   1.0000000
N2   N   0.111190510995868   0.055588895808307   0.625058754930502   1.0000000
N2   N   0.611231261292983   0.555685106527171   0.625548239319476   1.0000000
N2   N   0.444529698996267   0.055572146455786   0.625072551891010   1.0000000
N2   N   0.944507021187839   0.555583999663814   0.624936490667032   1.0000000
N2   N   0.111179602811913   0.555593172290521   0.124988326431182   1.0000000
N2   N   0.777871258223164   0.055602295778250   0.625007385171719   1.0000000
N2   N   0.277859862186590   0.055581329717377   0.124978377927470   1.0000000
N2   N   0.444546159778270   0.555642757419217   0.125052710987117   1.0000000
N2   N   0.777842564070336   0.555587948701839   0.124905419418657   1.0000000
N2   N   0.611198218103486   0.055580397419757   0.124982605564046   1.0000000
N2   N   0.444546159778270   0.555642757419217   0.624947289012890   1.0000000
N2   N   0.944536088812742   0.055603402327624   0.124974433097928   1.0000000
N2   N   0.277850568044665   0.722265214737614   0.625008286100689   1.0000000
N2   N   0.111203860458360   0.222268596895841   0.624988028363856   1.0000000
N2   N   0.444546159778270   0.222236735692382   0.624947289012890   1.0000000
N2   N   0.611199961524563   0.722310831275234   0.625170024329289   1.0000000
N2   N   0.944507021187839   0.722256354857368   0.624936490667032   1.0000000
N2   N   0.777866703683873   0.222249299667180   0.625005535825106   1.0000000
N2   N   0.111173284538309   0.722253308935819   0.125021563862070   1.0000000
N2   N   0.444529698996267   0.722290885873817   0.124927448108990   1.0000000
N2   N   0.277851864907718   0.222245206715704   0.125202410788429   1.0000000
N2   N   0.777860336501486   0.722284676538029   0.124929769463583   1.0000000
N2   N   0.611199961524563   0.222222463582659   0.124829975670711   1.0000000
N2   N   0.944536088812742   0.222266019818454   0.124974433097928   1.0000000
N2   N   0.111190510995868   0.388934948520889   0.625058754930502   1.0000000
N2   N   0.277850568044665   0.888918686640373   0.625008286100689   1.0000000
N2   N   0.611198218103486   0.888951154017065   0.625017394435954   1.0000000
N2   N   0.444514929614608   0.388924131473965   0.623519572862947   1.0000000
N2   N   0.944524032093320   0.888934148801292   0.624980631114096   1.0000000
N2   N   0.111179602811913   0.888919763854714   0.124988326431182   1.0000000
N2   N   0.777860336501486   0.388908993296786   0.625070230536418   1.0000000
N2   N   0.444524845843121   0.888929089588228   0.124992521252510   1.0000000
N2   N   0.277851864907718   0.388939991525335   0.125202410788429   1.0000000
N2   N   0.277859862186590   0.555611865802549   0.124978377927470   1.0000000
N2   N   0.611231261292983   0.388879488099140   0.124451760680524   1.0000000
N2   N   0.777866703683873   0.888950737350022   0.124994464174894   1.0000000
N2   N   0.944524032093320   0.388923216625357   0.125019368885904   1.0000000
N2   N   0.111179602811913   0.555593172290521   0.625011673568817   1.0000000
N2   N   0.277859862186590   0.055581329717377   0.625021622072530   1.0000000
N2   N   0.777842564070336   0.555587948701839   0.625094580581350   1.0000000
N2   N   0.611198218103486   0.055580397419757   0.625017394435954   1.0000000
N2   N   0.944536088812742   0.055603402327624   0.625025566902072   1.0000000
N2   N   0.058176068424633   0.112531331749502   0.375000000000000   1.0000000
N2   N   0.556094452663050   0.616216958831775   0.375000000000000   1.0000000
N2   N   0.388615374871132   0.105955395082304   0.375000000000000   1.0000000
N2   N   0.887772157049163   0.610552745191257   0.375000000000000   1.0000000
N2   N   0.724215312490756   0.111566368317425   0.375000000000000   1.0000000
N2   N   0.055512708130692   0.777756637111441   0.875000000000000   1.0000000
N2   N   0.388847514322149   0.777758323055223   0.875000000000000   1.0000000
N2   N   0.222181964710860   0.277757649022098   0.875000000000000   1.0000000
N2   N   0.722178382808096   0.777753665067544   0.875000000000000   1.0000000
N2   N   0.555507291419697   0.277752528060549   0.875000000000000   1.0000000
N2   N   0.888848640754226   0.277759758246060   0.875000000000000   1.0000000
N2   N   0.221454226927152   0.777393780130245   0.375000000000000   1.0000000
N2   N   0.058176068424633   0.278978070008467   0.375000000000000   1.0000000
N2   N   0.389896568031221   0.269469710752270   0.375000000000000   1.0000000
N2   N   0.556612669482770   0.780691654556117   0.375000000000000   1.0000000
N2   N   0.889065923126233   0.778089264579639   0.375000000000000   1.0000000
N2   N   0.723756670030324   0.277256842097361   0.375000000000000   1.0000000
N2   N   0.055512464972866   0.944421736745034   0.875000000000000   1.0000000
N2   N   0.388847514322149   0.944422524600262   0.875000000000000   1.0000000
N2   N   0.222179535259118   0.444423194972863   0.875000000000000   1.0000000
N2   N   0.555503586047673   0.444418459690497   0.875000000000000   1.0000000
N2   N   0.722179055494281   0.944421869309231   0.875000000000000   1.0000000
N2   N   0.888847778511037   0.444424762038761   0.875000000000000   1.0000000
N2   N   0.056114666374934   0.445022769148015   0.375000000000000   1.0000000
N2   N   0.221604513309860   0.942894985280074   0.375000000000000   1.0000000
N2   N   0.556680040206055   0.945006686769688   0.375000000000000   1.0000000
N2   N   0.389896568031221   0.453760190612287   0.375000000000000   1.0000000
N2   N   0.890835392083242   0.945875318907313   0.375000000000000   1.0000000
N2   N   0.721662886373523   0.443691335087923   0.375000000000000   1.0000000
N2   N   0.222178375754532   0.611089900805245   0.875000000000000   1.0000000
N2   N   0.055514112866028   0.111089350746831   0.875000000000000   1.0000000
N2   N   0.555507291419697   0.611088096692484   0.875000000000000   1.0000000
N2   N   0.388845735019462   0.111088922523201   0.875000000000000   1.0000000
N2   N   0.888848691781604   0.611091012557470   0.875000000000000   1.0000000
N2   N   0.054739709054319   0.610953431444595   0.375000000000000   1.0000000
N2   N   0.722179055494281   0.111090519518385   0.875000000000000   1.0000000
N2   N   0.223103477853324   0.110175572088116   0.375000000000000   1.0000000
N2   N   0.388615374871132   0.615993313122171   0.375000000000000   1.0000000
N2   N   0.721662886373523   0.611304884618935   0.375000000000000   1.0000000
N2   N   0.556612669482770   0.109254348259996   0.375000000000000   1.0000000
N2   N   0.388845735019462   0.611090145829604   0.875000000000000   1.0000000
N2   N   0.891353280881694   0.112343307107519   0.375000000000000   1.0000000
N2   N   0.222179362375189   0.777756347854259   0.875000000000000   1.0000000
N2   N   0.055514112866028   0.277758095452533   0.875000000000000   1.0000000
N2   N   0.388848671721132   0.277758982231096   0.875000000000000   1.0000000
N2   N   0.555511020881638   0.777756436592335   0.875000000000000   1.0000000
N2   N   0.888847778511037   0.777756349805612   0.875000000000000   1.0000000
N2   N   0.722178382808096   0.277758051073888   0.875000000000000   1.0000000
N2   N   0.054739709054319   0.777119610943052   0.375000000000000   1.0000000
N2   N   0.388812190432534   0.779249996516548   0.375000000000000   1.0000000
N2   N   0.226260054055905   0.279796693694617   0.375000000000000   1.0000000
N2   N   0.723756670030324   0.779833161266299   0.375000000000000   1.0000000
N2   N   0.556094452663050   0.273210827164611   0.375000000000000   1.0000000
N2   N   0.890835392083242   0.278293406509264   0.375000000000000   1.0000000
N2   N   0.055512464972866   0.444424061561161   0.875000000000000   1.0000000
N2   N   0.222178375754532   0.944421808282623   0.875000000000000   1.0000000
N2   N   0.555512246096086   0.944422789714708   0.875000000000000   1.0000000
N2   N   0.388848671721132   0.444423022823372   0.875000000000000   1.0000000
N2   N   0.888848640754226   0.944422215841502   0.875000000000000   1.0000000
N2   N   0.056114666374934   0.944425230560247   0.375000000000000   1.0000000
N2   N   0.722179346029845   0.444424755523167   0.875000000000000   1.0000000
N2   N   0.388812190432534   0.942895527249322   0.375000000000000   1.0000000
N2   N   0.223103477853324   0.446261239098544   0.375000000000000   1.0000000
N2   N   0.221604513309860   0.612042861363115   0.375000000000000   1.0000000
N2   N   0.724215312490756   0.945982277506667   0.375000000000000   1.0000000
N2   N   0.889065923126233   0.444309991879930   0.375000000000000   1.0000000
N2   N   0.055512708130692   0.611089404352594   0.875000000000000   1.0000000
N2   N   0.222179535259118   0.111089673619590   0.875000000000000   1.0000000
N2   N   0.722179346029845   0.611087923840014   0.875000000000000   1.0000000
N2   N   0.555511020881638   0.111087917622639   0.875000000000000   1.0000000
N2   N   0.888848372567249   0.111090852950296   0.875000000000000   1.0000000
B2   B   0.112565061003529   0.055794554309269   0.375000000000000   1.0000000
B2   B   0.612967785480971   0.563790765623245   0.375000000000000   1.0000000
B2   B   0.445155757307744   0.052830465294560   0.375000000000000   1.0000000
B2   B   0.943930819316157   0.555343296418036   0.375000000000000   1.0000000
B2   B   0.780320658400547   0.056826995866942   0.375000000000000   1.0000000
B2   B   0.111070869468498   0.722202101400909   0.875000000000000   1.0000000
B2   B   0.444392668809377   0.722193155271385   0.875000000000000   1.0000000
B2   B   0.277728081933823   0.222200037657810   0.875000000000000   1.0000000
B2   B   0.777739585887870   0.722204694739196   0.875000000000000   1.0000000
B2   B   0.611060937755180   0.222197515877527   0.875000000000000   1.0000000
B2   B   0.944415002461277   0.222205447624920   0.875000000000000   1.0000000
B2   B   0.277534520897096   0.722798879476750   0.375000000000000   1.0000000
B2   B   0.115008379328883   0.224170856331102   0.375000000000000   1.0000000
B2   B   0.443534608996457   0.215340603575944   0.375000000000000   1.0000000
B2   B   0.612907156608088   0.726742604920015   0.375000000000000   1.0000000
B2   B   0.943930819316157   0.721920856231449   0.375000000000000   1.0000000
B2   B   0.779982497689155   0.222388571409013   0.375000000000000   1.0000000
B2   B   0.111072035193383   0.888873982592407   0.875000000000000   1.0000000
B2   B   0.444397404087590   0.888865368710463   0.875000000000000   1.0000000
B2   B   0.277728081933823   0.388861377609342   0.875000000000000   1.0000000
B2   B   0.611056187958639   0.388860424406724   0.875000000000000   1.0000000
B2   B   0.777743462027158   0.888873272584525   0.875000000000000   1.0000000
B2   B   0.944413088765343   0.388869178162998   0.875000000000000   1.0000000
B2   B   0.112565061003529   0.390103840027588   0.375000000000000   1.0000000
B2   B   0.277534520897096   0.888068974753674   0.375000000000000   1.0000000
B2   B   0.613029611389628   0.890977303582817   0.375000000000000   1.0000000
B2   B   0.945390320884308   0.889532291420417   0.375000000000000   1.0000000
B2   B   0.778476138230289   0.388160866652515   0.375000000000000   1.0000000
B2   B   0.277729361980435   0.555525551559035   0.875000000000000   1.0000000
B2   B   0.111074218139693   0.055541383762318   0.875000000000000   1.0000000
B2   B   0.611056187958639   0.555529096885251   0.875000000000000   1.0000000
B2   B   0.444392668809377   0.055532846871328   0.875000000000000   1.0000000
B2   B   0.944411232481535   0.555537832008964   0.875000000000000   1.0000000
B2   B   0.110806953398790   0.555947983563744   0.375000000000000   1.0000000
B2   B   0.777744743978319   0.055539038655828   0.875000000000000   1.0000000
B2   B   0.277633230828354   0.053643534581703   0.375000000000000   1.0000000
B2   B   0.443534608996457   0.561527338753848   0.375000000000000   1.0000000
B2   B   0.777086414236619   0.555209873784981   0.375000000000000   1.0000000
B2   B   0.613029611389628   0.055385641140140   0.375000000000000   1.0000000
B2   B   0.444387430089801   0.555523393869383   0.875000000000000   1.0000000
B2   B   0.947208892274399   0.057186747414227   0.375000000000000   1.0000000
B2   B   0.277731849328470   0.722196797886931   0.875000000000000   1.0000000
B2   B   0.111076160696870   0.222204747015099   0.875000000000000   1.0000000
B2   B   0.444387430089801   0.222197369553761   0.875000000000000   1.0000000
B2   B   0.611060937755180   0.722196755210982   0.875000000000000   1.0000000
B2   B   0.944411232481535   0.722206733805914   0.875000000000000   1.0000000
B2   B   0.777743462027158   0.222203522775961   0.875000000000000   1.0000000
B2   B   0.110450129154329   0.721891731243829   0.375000000000000   1.0000000
B2   B   0.445155757307744   0.725658625346519   0.375000000000000   1.0000000
B2   B   0.280886345922310   0.222188945415890   0.375000000000000   1.0000000
B2   B   0.778476138230289   0.723648604911102   0.375000000000000   1.0000000
B2   B   0.612907156608088   0.219497885021401   0.375000000000000   1.0000000
B2   B   0.947208892274399   0.223355478193508   0.375000000000000   1.0000000
B2   B   0.111074218139693   0.388866167710711   0.875000000000000   1.0000000
B2   B   0.277731849328470   0.888868384774867   0.875000000000000   1.0000000
B2   B   0.611068013327512   0.888867676179871   0.875000000000000   1.0000000
B2   B   0.444383244844406   0.388858289088871   0.875000000000000   1.0000000
B2   B   0.944413088765343   0.888877243935674   0.875000000000000   1.0000000
B2   B   0.110806953398790   0.888192303168374   0.375000000000000   1.0000000
B2   B   0.777739585887870   0.388868224482003   0.875000000000000   1.0000000
B2   B   0.445272255121618   0.889302794227470   0.375000000000000   1.0000000
B2   B   0.280886345922310   0.392030733839748   0.375000000000000   1.0000000
B2   B   0.277633230828354   0.557323029579986   0.375000000000000   1.0000000
B2   B   0.612967785480971   0.382510353191054   0.375000000000000   1.0000000
B2   B   0.779982497689155   0.890927259613471   0.375000000000000   1.0000000
B2   B   0.945390320884308   0.389191362797220   0.375000000000000   1.0000000
B2   B   0.111072035193383   0.555531385934304   0.875000000000000   1.0000000
B2   B   0.277729361980435   0.055537143754735   0.875000000000000   1.0000000
B2   B   0.777737847883449   0.555535590608389   0.875000000000000   1.0000000
B2   B   0.611068013327512   0.055533670480963   0.875000000000000   1.0000000
B2   B   0.944415002461277   0.055542888169693   0.875000000000000   1.0000000
B2   B   0.055679741003741   0.111185300496239   0.125018914368024   1.0000000
B2   B   0.555596409234224   0.611193423157102   0.124713246203902   1.0000000
B2   B   0.388946752053542   0.111122225679806   0.125021168498403   1.0000000
B2   B   0.888980075097528   0.611156704215432   0.124959536271087   1.0000000
B2   B   0.722306321257109   0.111131062456687   0.124975296965643   1.0000000
B2   B   0.055652765474098   0.777837685572949   0.624993630450484   1.0000000
B2   B   0.388954712052111   0.777817774874223   0.625024313441634   1.0000000
B2   B   0.222334274585708   0.277833803959525   0.624658355872845   1.0000000
B2   B   0.722298031253866   0.777865606063886   0.625155889483629   1.0000000
B2   B   0.555596409234224   0.277736319410458   0.625286753796098   1.0000000
B2   B   0.888997857494486   0.277804741741724   0.625016086131397   1.0000000
B2   B   0.222302532985169   0.777817933159252   0.124995000782404   1.0000000
B2   B   0.055679741003741   0.277827773840838   0.125018914368024   1.0000000
B2   B   0.388872729757021   0.277682897269953   0.125858265664741   1.0000000
B2   B   0.555614064122589   0.777848187829350   0.124907839686304   1.0000000
B2   B   0.888994185538898   0.777860770658600   0.124961603629271   1.0000000
B2   B   0.722298031253866   0.277765758523315   0.124844110516371   1.0000000
B2   B   0.055665006254364   0.944523204275745   0.625010901506800   1.0000000
B2   B   0.388954712052111   0.944470270511224   0.625024313441634   1.0000000
B2   B   0.222317933928653   0.444480316290456   0.624882613387805   1.0000000
B2   B   0.555707719220002   0.444520526276669   0.624411181589895   1.0000000
B2   B   0.722306321257109   0.944508592133764   0.625024703034357   1.0000000
B2   B   0.888994185538898   0.444466748213635   0.625038396370729   1.0000000
B2   B   0.055665006254364   0.444475135311948   0.124989098493200   1.0000000
B2   B   0.222309022399824   0.944500972790034   0.124997136532164   1.0000000
B2   B   0.555622623968182   0.944477978650752   0.124984955290439   1.0000000
B2   B   0.388872729757021   0.444523165820404   0.125858265664741   1.0000000
B2   B   0.888997857494486   0.944526449086097   0.124983913868610   1.0000000
B2   B   0.722302779795632   0.444450641999840   0.124577747361295   1.0000000
B2   B   0.222309022399824   0.611141382943126   0.625002863467836   1.0000000
B2   B   0.055679741003741   0.111185300496239   0.624981085631976   1.0000000
B2   B   0.555596409234224   0.611193423157102   0.625286753796098   1.0000000
B2   B   0.388946752053542   0.111122225679806   0.624978831501597   1.0000000
B2   B   0.888980075097528   0.611156704215432   0.625040463728913   1.0000000
B2   B   0.055652765474098   0.611148413234492   0.125006369549517   1.0000000
B2   B   0.722306321257109   0.111131062456687   0.625024703034357   1.0000000
B2   B   0.222317933928653   0.111170950971532   0.125117386612195   1.0000000
B2   B   0.388946752053542   0.611157859707072   0.125021168498403   1.0000000
B2   B   0.722302779795632   0.611185471129121   0.124577747361295   1.0000000
B2   B   0.555614064122589   0.111099209626575   0.124907839686304   1.0000000
B2   B   0.388946752053542   0.611157859707072   0.624978831501597   1.0000000
B2   B   0.889001263637951   0.111167298485647   0.124985252309630   1.0000000
B2   B   0.222302532985169   0.777817933159252   0.625004999217596   1.0000000
B2   B   0.055679741003741   0.277827773840838   0.624981085631976   1.0000000
B2   B   0.388872729757021   0.277682897269953   0.624141734335259   1.0000000
B2   B   0.555614064122589   0.777848187829350   0.625092160313696   1.0000000
B2   B   0.888994185538898   0.777860770658600   0.625038396370729   1.0000000
B2   B   0.722298031253866   0.277765758523315   0.625155889483629   1.0000000
B2   B   0.055652765474098   0.777837685572949   0.125006369549517   1.0000000
B2   B   0.388954712052111   0.777817774874223   0.124975686558366   1.0000000
B2   B   0.222334274585708   0.277833803959525   0.125341644127155   1.0000000
B2   B   0.722298031253866   0.777865606063886   0.124844110516371   1.0000000
B2   B   0.555596409234224   0.277736319410458   0.124713246203902   1.0000000
B2   B   0.888997857494486   0.277804741741724   0.124983913868610   1.0000000
B2   B   0.055665006254364   0.444475135311948   0.625010901506800   1.0000000
B2   B   0.222309022399824   0.944500972790034   0.625002863467836   1.0000000
B2   B   0.555622623968182   0.944477978650752   0.625015044709561   1.0000000
B2   B   0.388872729757021   0.444523165820404   0.624141734335259   1.0000000
B2   B   0.888997857494486   0.944526449086097   0.625016086131397   1.0000000
B2   B   0.055665006254364   0.944523204275745   0.124989098493200   1.0000000
B2   B   0.722302779795632   0.444450641999840   0.625422252638705   1.0000000
B2   B   0.388954712052111   0.944470270511224   0.124975686558366   1.0000000
B2   B   0.222317933928653   0.444480316290456   0.125117386612195   1.0000000
B2   B   0.222309022399824   0.611141382943126   0.124997136532164   1.0000000
B2   B   0.555707719220002   0.444520526276669   0.125588818410105   1.0000000
B2   B   0.722306321257109   0.944508592133764   0.124975296965643   1.0000000
B2   B   0.888994185538898   0.444466748213635   0.124961603629271   1.0000000
B2   B   0.055652765474098   0.611148413234492   0.624993630450484   1.0000000
B2   B   0.222317933928653   0.111170950971532   0.624882613387805   1.0000000
B2   B   0.722302779795632   0.611185471129121   0.625422252638705   1.0000000
B2   B   0.555614064122589   0.111099209626575   0.625092160313696   1.0000000
B2   B   0.889001263637951   0.111167298485647   0.625014747690370   1.0000000


