data_1
_audit_creation_method   'vasp2cif'
_cell_length_a    17.52789999999977
_cell_length_b    17.52789999999977
_cell_length_c    15.0
_cell_angle_alpha    90.0
_cell_angle_beta    90.0
_cell_angle_gamma    119.99999999999916

_symmetry_space_group_name_H-M    'P 1'
loop_
_atom_site_label
_atom_site_type_symbol
_atom_site_fract_x
_atom_site_fract_y
_atom_site_fract_z
_atom_site_occupancy
Sb2   Sb   0.379621587258046   0.475302159296699   0.974138004011094   1.0000000
B2   B   0.910566758764029   0.956654680276708   0.109819867766878   1.0000000
B2   B   0.909326803244163   0.098594112602163   0.110644283037129   1.0000000
B2   B   0.908687778441932   0.240910768402340   0.109901405152995   1.0000000
B2   B   0.908231801835973   0.383440378912143   0.111350848774959   1.0000000
B2   B   0.907880215383348   0.526193264631445   0.112351735998178   1.0000000
B2   B   0.905667927949549   0.668976418043653   0.110779163900864   1.0000000
B2   B   0.909367950028612   0.812639123514073   0.108879207523428   1.0000000
B2   B   0.051499340673537   0.954022241140507   0.109321279932010   1.0000000
B2   B   0.051809966854235   0.097408184876754   0.113980765931325   1.0000000
B2   B   0.051674454784866   0.240513531105505   0.114217036504993   1.0000000
B2   B   0.051417881637163   0.383376267916557   0.114696140412477   1.0000000
B2   B   0.050892753455873   0.525938940485708   0.116100849472895   1.0000000
B2   B   0.050077644800932   0.668208736407495   0.112054156232893   1.0000000
B2   B   0.050809854753537   0.810730144866946   0.107921576791225   1.0000000
B2   B   0.193496504226088   0.952580299974535   0.110048679935663   1.0000000
B2   B   0.193268270971816   0.095160177401168   0.115221474234954   1.0000000
B2   B   0.193321779172871   0.238447415416826   0.115736868508946   1.0000000
B2   B   0.194318930030739   0.382790203456493   0.107433541609077   1.0000000
B2   B   0.193880543398955   0.525697254675387   0.117011492342188   1.0000000
B2   B   0.194191451373405   0.668081326482847   0.117640888241212   1.0000000
B2   B   0.193745108872104   0.810211044404676   0.111560823087460   1.0000000
B2   B   0.336414324705780   0.952302832944467   0.111338267275538   1.0000000
B2   B   0.335703857713742   0.094022711286571   0.115135078384461   1.0000000
B2   B   0.334850448452288   0.235561356282966   0.116230545681410   1.0000000
B2   B   0.331097575054318   0.370580308649172   0.078624111034051   1.0000000
B2   B   0.332852524281473   0.530535419906897   0.080206040951707   1.0000000
B2   B   0.338570049983034   0.668410259704803   0.118899664201845   1.0000000
B2   B   0.337111902234796   0.810388071918244   0.116989316524157   1.0000000
B2   B   0.479745618709141   0.953121735313163   0.112306681642899   1.0000000
B2   B   0.479017506821103   0.094749028449129   0.111262727589790   1.0000000
B2   B   0.477745316911086   0.235554359869413   0.117102020568441   1.0000000
B2   B   0.475842473136010   0.376492603733094   0.110990128780213   1.0000000
B2   B   0.483562371085155   0.669948838127123   0.112049853881629   1.0000000
B2   B   0.480732133859452   0.811344819810754   0.118091805286321   1.0000000
B2   B   0.623248112109222   0.955005921914918   0.112638161898246   1.0000000
B2   B   0.622470234508692   0.096568447566676   0.108360184136625   1.0000000
B2   B   0.621703426719647   0.238070853236718   0.111532539759547   1.0000000
B2   B   0.618995367100717   0.377418368402669   0.117073442625178   1.0000000
B2   B   0.537073572091515   0.486812904281578   0.111325591573734   1.0000000
B2   B   0.638792967678544   0.677392560210599   0.121698222775818   1.0000000
B2   B   0.624713429244586   0.813930408281280   0.117815525733792   1.0000000
B2   B   0.767007902495492   0.956883675064377   0.111999131146176   1.0000000
B2   B   0.765949684622045   0.098273414130330   0.108590113696497   1.0000000
B2   B   0.765339590209352   0.240274161733985   0.108110103733821   1.0000000
B2   B   0.764823094244279   0.382664621762979   0.112117921724040   1.0000000
B2   B   0.766447267468827   0.527171661733607   0.114709125807508   1.0000000
B2   B   0.761650316825207   0.672601354397356   0.115405035251847   1.0000000
B2   B   0.770070585796601   0.817405104150520   0.114041928670331   1.0000000
N2   N   0.956308607643113   0.907211247236025   0.108311106929952   1.0000000
N2   N   0.956980440588133   0.050897448048846   0.111011206094946   1.0000000
N2   N   0.956496765228052   0.193470326763407   0.111339219033307   1.0000000
N2   N   0.956022247376668   0.336076779272433   0.111643535932894   1.0000000
N2   N   0.955297285747641   0.478692139579422   0.113082472607951   1.0000000
N2   N   0.953499814274475   0.621125779440038   0.111337980000430   1.0000000
N2   N   0.954761280882084   0.763488667577611   0.108087205925389   1.0000000
N2   N   0.098218062193506   0.905566612848875   0.107952955585815   1.0000000
N2   N   0.098450144612340   0.048711275060320   0.112889024974734   1.0000000
N2   N   0.098647325817943   0.192169763469019   0.117109971152043   1.0000000
N2   N   0.099397035766341   0.335832714918199   0.113963900439450   1.0000000
N2   N   0.098608869513290   0.478462071813130   0.118219605841684   1.0000000
N2   N   0.098258793299375   0.620938050120109   0.115763007718763   1.0000000
N2   N   0.098085172052459   0.762997057370412   0.109642093349557   1.0000000
N2   N   0.241218957112041   0.905088544921787   0.110022348195432   1.0000000
N2   N   0.240802867619625   0.047410295560736   0.113468632720961   1.0000000
N2   N   0.240331750359040   0.189905300347214   0.117539352045520   1.0000000
N2   N   0.240724118087536   0.333156413964825   0.105564912881619   1.0000000
N2   N   0.241561863840843   0.478678558172616   0.106616738380009   1.0000000
N2   N   0.242790018493481   0.620997230280963   0.119400171907370   1.0000000
N2   N   0.241789806230955   0.763006808348313   0.115927685432097   1.0000000
N2   N   0.384616918041144   0.905259879088508   0.113156557662017   1.0000000
N2   N   0.383973403185314   0.047310930404975   0.111913494251773   1.0000000
N2   N   0.383234607520252   0.188966204242103   0.119029766270359   1.0000000
N2   N   0.382127914814778   0.330027271370761   0.105388318552418   1.0000000
N2   N   0.388061709792657   0.621277454120052   0.109452204376686   1.0000000
N2   N   0.385778019922638   0.763339956570965   0.120599870241159   1.0000000
N2   N   0.528129278485625   0.906161092659045   0.114666474704438   1.0000000
N2   N   0.527315303549229   0.048183945677940   0.109404846170478   1.0000000
N2   N   0.526707119487133   0.190063498710342   0.113120744861345   1.0000000
N2   N   0.525117714536706   0.331287920323025   0.118428490463995   1.0000000
N2   N   0.502153077727510   0.542284018366027   0.101572086755901   1.0000000
N2   N   0.541625063700837   0.627225794280988   0.115818521201927   1.0000000
N2   N   0.529811053600774   0.764049529917020   0.118257004033437   1.0000000
N2   N   0.671681183136392   0.908087081806824   0.114661151458378   1.0000000
N2   N   0.670678266822710   0.049811535045918   0.108892883245233   1.0000000
N2   N   0.670048965801119   0.191940909846887   0.108016565434916   1.0000000
N2   N   0.669263860503802   0.334133382368420   0.113979635216148   1.0000000
N2   N   0.669366007687755   0.475973778454954   0.116936727121437   1.0000000
N2   N   0.629055318544325   0.521071165258411   0.117023018389808   1.0000000
N2   N   0.675405234051776   0.768587101741741   0.119181207705119   1.0000000
N2   N   0.815628349121475   0.910235462237034   0.111285835031569   1.0000000
N2   N   0.814013836707824   0.051198291088501   0.109857500060967   1.0000000
N2   N   0.813338261138194   0.193313862536627   0.107693513300336   1.0000000
N2   N   0.812593648943423   0.335854379239348   0.109660515214062   1.0000000
N2   N   0.811855174033286   0.478723504550462   0.112972912711785   1.0000000
N2   N   0.807075908210985   0.621836927941512   0.113844031055619   1.0000000
N2   N   0.813457594130183   0.765951558994301   0.111987767828389   1.0000000


