data_1
_audit_creation_method   'vasp2cif'
_cell_length_a    17.52789999999977
_cell_length_b    17.52789999999977
_cell_length_c    15.0
_cell_angle_alpha    90.0
_cell_angle_beta    90.0
_cell_angle_gamma    119.99999999999916

_symmetry_space_group_name_H-M    'P 1'
loop_
_atom_site_label
_atom_site_type_symbol
_atom_site_fract_x
_atom_site_fract_y
_atom_site_fract_z
_atom_site_occupancy
B2   B   0.903751428204827   0.951058834608072   0.111003993390746   1.0000000
B2   B   0.905342415671230   0.094659605524766   0.111048046733285   1.0000000
B2   B   0.905849157820621   0.237606665636602   0.111063986261769   1.0000000
B2   B   0.905912490764929   0.380534078087470   0.111018081990422   1.0000000
B2   B   0.904755524064124   0.523329435374089   0.110998204447699   1.0000000
B2   B   0.902536077834418   0.665515530634801   0.111044778150893   1.0000000
B2   B   0.901320422660935   0.806835257708046   0.111012136885230   1.0000000
B2   B   0.047218960449331   0.952783060746672   0.110981644140875   1.0000000
B2   B   0.048943186587931   0.096250592991169   0.111003993390746   1.0000000
B2   B   0.049304390489900   0.238667857726222   0.111031734270944   1.0000000
B2   B   0.048699202817922   0.381133209218325   0.111025586568463   1.0000000
B2   B   0.047383826461955   0.524056333964596   0.111007997444208   1.0000000
B2   B   0.046403100478082   0.666903061278825   0.111016028796733   1.0000000
B2   B   0.046275138861587   0.809613616464523   0.110981386083151   1.0000000
B2   B   0.190388404731481   0.953726882334409   0.110981386083151   1.0000000
B2   B   0.193166763487958   0.098681598535062   0.111012136885230   1.0000000
B2   B   0.194366507848550   0.241578719035901   0.110945629157190   1.0000000
B2   B   0.192579321493255   0.382489509547151   0.110886821868002   1.0000000
B2   B   0.189785483095507   0.524803015243065   0.110973089265096   1.0000000
B2   B   0.189143537333714   0.667606214869206   0.111062498366265   1.0000000
B2   B   0.189550633830330   0.810451387365672   0.111004012166835   1.0000000
B2   B   0.333098959918174   0.953598920717921   0.111016028796733   1.0000000
B2   B   0.334486490562197   0.097465943361578   0.111044778150893   1.0000000
B2   B   0.340600413983093   0.245824562105447   0.111046264087107   1.0000000
B2   B   0.340216669673291   0.387142447127557   0.110793223053383   1.0000000
B2   B   0.332041168078964   0.527640364527951   0.111068494117331   1.0000000
B2   B   0.331288987604623   0.668713033592375   0.111201127555196   1.0000000
B2   B   0.332395806327792   0.810858483862290   0.111062498366265   1.0000000
B2   B   0.475945687232402   0.952618194734048   0.111007997444208   1.0000000
B2   B   0.476672585822910   0.095246497131872   0.110998204447699   1.0000000
B2   B   0.478257462131014   0.238518274855716   0.111059944257756   1.0000000
B2   B   0.493617619208480   0.392624608883414   0.110994270401822   1.0000000
B2   B   0.472361656669047   0.667960853118034   0.111068494117331   1.0000000
B2   B   0.475199005953933   0.810216538100497   0.110973089265096   1.0000000
B2   B   0.618868811977679   0.951302818378082   0.111025586568463   1.0000000
B2   B   0.619467943108534   0.094089530431066   0.111018081990422   1.0000000
B2   B   0.620197826584457   0.236320991702469   0.111000287345122   1.0000000
B2   B   0.622108375048296   0.377893646147709   0.110996463689156   1.0000000
B2   B   0.607377412312589   0.506384401988519   0.110994270401822   1.0000000
B2   B   0.612859574068446   0.659785351523707   0.110793223053383   1.0000000
B2   B   0.617512511648852   0.807422699702749   0.110886821868002   1.0000000
B2   B   0.761334163469781   0.950697630706103   0.111031734270944   1.0000000
B2   B   0.762395355559401   0.094152863375376   0.111063986261769   1.0000000
B2   B   0.762957819997957   0.237044201198047   0.111020381525020   1.0000000
B2   B   0.763681029493535   0.379804194611546   0.111000287345122   1.0000000
B2   B   0.761483746340288   0.521744559065984   0.111059944257756   1.0000000
B2   B   0.754177459090557   0.659401607213906   0.111046264087107   1.0000000
B2   B   0.758423302160101   0.805635513347454   0.110945629157190   1.0000000
N2   N   0.950917536763473   0.903234090917488   0.110975459660785   1.0000000
N2   N   0.952892035666033   0.047109366251973   0.110998472690403   1.0000000
N2   N   0.953631029863819   0.190209127685523   0.111034814905315   1.0000000
N2   N   0.953502001772637   0.332983722074256   0.111027393908428   1.0000000
N2   N   0.952511451656440   0.475882942551012   0.110974524404889   1.0000000
N2   N   0.951124897326466   0.618675570317693   0.111004214325262   1.0000000
N2   N   0.950460158985767   0.760877443242188   0.111008375266213   1.0000000
N2   N   0.094752149177732   0.905249252740266   0.110954855389937   1.0000000
N2   N   0.096767311000510   0.049083865154533   0.110975459660785   1.0000000
N2   N   0.097979786963123   0.192150085038421   0.110986450082561   1.0000000
N2   N   0.096970227660086   0.333997474678162   0.110997615873349   1.0000000
N2   N   0.095020281071431   0.476468729394041   0.110994295963994   1.0000000
N2   N   0.094148996296535   0.619420186241395   0.111004486101277   1.0000000
N2   N   0.094161237655954   0.762314845407759   0.110974207981023   1.0000000
N2   N   0.237686556510247   0.905840164262044   0.110974207981023   1.0000000
N2   N   0.239123958675817   0.049541242932239   0.111008375266213   1.0000000
N2   N   0.243388042137052   0.195481087523350   0.111004757213653   1.0000000
N2   N   0.243097150660741   0.337405370892725   0.110820120761101   1.0000000
N2   N   0.237612927334455   0.477510964043650   0.110836857905454   1.0000000
N2   N   0.236500835060128   0.620075663080174   0.111062716881928   1.0000000
N2   N   0.237095179378695   0.762906222539311   0.111043377153280   1.0000000
N2   N   0.380581215676604   0.905852405621464   0.111004486101277   1.0000000
N2   N   0.381325831600306   0.048876504591540   0.111004214325262   1.0000000
N2   N   0.383445353685097   0.193386841029466   0.111055494326177   1.0000000
N2   N   0.393560975447154   0.344756689276464   0.111004045350927   1.0000000
N2   N   0.379802740924297   0.481934408046460   0.110706014319623   1.0000000
N2   N   0.378316106408976   0.621685295509023   0.111389162257053   1.0000000
N2   N   0.379925738837831   0.763500566857879   0.111062716881928   1.0000000
N2   N   0.523532672522955   0.904981120846568   0.110994295963994   1.0000000
N2   N   0.524118459365985   0.047489950261566   0.110974524404889   1.0000000
N2   N   0.525000662438740   0.190072632656967   0.110999889836286   1.0000000
N2   N   0.527643731087982   0.333094470052799   0.110986662479762   1.0000000
N2   N   0.518066993870536   0.620198660993702   0.110706014319623   1.0000000
N2   N   0.522490437873347   0.762388474583551   0.110836857905454   1.0000000
N2   N   0.666003927238835   0.903031174257913   0.110997615873349   1.0000000
N2   N   0.667017679842741   0.046499400145368   0.111027393908428   1.0000000
N2   N   0.667680122162825   0.189054806963295   0.110991558674363   1.0000000
N2   N   0.668948786610207   0.331052615306789   0.110990325992526   1.0000000
N2   N   0.666906931864198   0.472357670829016   0.110986662479762   1.0000000
N2   N   0.655244712640534   0.606440426470845   0.111004045350927   1.0000000
N2   N   0.662596031024272   0.756904251257265   0.110820120761101   1.0000000
N2   N   0.807851316879577   0.902021614954876   0.110986450082561   1.0000000
N2   N   0.809792274232476   0.046370372054187   0.111034814905315   1.0000000
N2   N   0.810473625621379   0.189527776296620   0.111046193897486   1.0000000
N2   N   0.810946594954704   0.332321279754172   0.110991558674363   1.0000000
N2   N   0.809928769261032   0.475000739478257   0.110999889836286   1.0000000
N2   N   0.806614560888532   0.616556048232901   0.111055494326177   1.0000000
N2   N   0.804520314394649   0.756613359780954   0.111004757213653   1.0000000
O2   O   0.472889229130134   0.527112792066864   0.113301305623512   1.0000000


