data_1
_audit_creation_method   'vasp2cif'
_cell_length_a    17.52789999999977
_cell_length_b    17.52789999999977
_cell_length_c    15.0
_cell_angle_alpha    90.0
_cell_angle_beta    90.0
_cell_angle_gamma    119.99999999999916

_symmetry_space_group_name_H-M    'P 1'
loop_
_atom_site_label
_atom_site_type_symbol
_atom_site_fract_x
_atom_site_fract_y
_atom_site_fract_z
_atom_site_occupancy
B2   B   0.905417967813362   0.953114878641279   0.118577676717229   1.0000000
B2   B   0.904547631690593   0.095593632831009   0.118133327680483   1.0000000
B2   B   0.904264007540526   0.238423291431533   0.117278471154714   1.0000000
B2   B   0.904356486442672   0.381280553773833   0.116063621963387   1.0000000
B2   B   0.905113591620322   0.524165562337525   0.115003028013847   1.0000000
B2   B   0.906084461940456   0.667268981685502   0.116090415473230   1.0000000
B2   B   0.906321572151777   0.810592403456299   0.118259486048284   1.0000000
B2   B   0.047950017170749   0.952205852751776   0.118032720079353   1.0000000
B2   B   0.047031191472691   0.094726116189064   0.118573012809651   1.0000000
B2   B   0.046790335353066   0.237858495334098   0.117501792007068   1.0000000
B2   B   0.047106655159822   0.380921057648999   0.115124546329637   1.0000000
B2   B   0.047979046905876   0.523748442843004   0.114570241035515   1.0000000
B2   B   0.048542399714056   0.666594956642820   0.115484145714443   1.0000000
B2   B   0.048476863952496   0.809491766370938   0.117066141252224   1.0000000
B2   B   0.190662973550965   0.951681600973238   0.117071772949646   1.0000000
B2   B   0.189563571871397   0.093835671467739   0.118266926728831   1.0000000
B2   B   0.188460882356337   0.236332838289992   0.117935459882596   1.0000000
B2   B   0.189241646367270   0.380175629865652   0.111191023671264   1.0000000
B2   B   0.190938003791466   0.523230535857734   0.108137424566228   1.0000000
B2   B   0.191484064732254   0.666132132562285   0.110977869932981   1.0000000
B2   B   0.191153574964842   0.808999036962592   0.114961841376405   1.0000000
B2   B   0.333554496588352   0.951612370384682   0.115472366363577   1.0000000
B2   B   0.332886448191236   0.094068824829927   0.116087099191848   1.0000000
B2   B   0.330737292915313   0.235020083389414   0.114917767494905   1.0000000
B2   B   0.328473212517139   0.377525889743034   0.101740054403625   1.0000000
B2   B   0.333509244437980   0.521346189006689   0.091293675811457   1.0000000
B2   B   0.334742551131170   0.665416727038630   0.100504005808489   1.0000000
B2   B   0.334011103828752   0.808658334177217   0.110971250500688   1.0000000
B2   B   0.476398429290132   0.952170544844969   0.114555096596326   1.0000000
B2   B   0.475985886324541   0.095037274699106   0.114985190048737   1.0000000
B2   B   0.475149720211298   0.237406337678195   0.109636014387407   1.0000000
B2   B   0.468907395470154   0.373577228900584   0.091889012551201   1.0000000
B2   B   0.478805116076328   0.666639177959407   0.091293071599057   1.0000000
B2   B   0.476927842252265   0.809220749481533   0.108136964061990   1.0000000
B2   B   0.619228837227838   0.953035178308639   0.115130977024037   1.0000000
B2   B   0.618865080429541   0.095793786208778   0.116050578761045   1.0000000
B2   B   0.618512300433865   0.238751943253443   0.112060844639122   1.0000000
B2   B   0.618188457517689   0.381966431383266   0.102018463796535   1.0000000
B2   B   0.626576034602443   0.531240669239245   0.091879875171695   1.0000000
B2   B   0.622632618803432   0.671678582590930   0.101721482070966   1.0000000
B2   B   0.619969355178441   0.810893446412053   0.111198301323550   1.0000000
B2   B   0.762280532323034   0.953352873539060   0.117523819314516   1.0000000
B2   B   0.761729811548876   0.095888508069234   0.117280399974497   1.0000000
B2   B   0.761456687549210   0.238697649536733   0.115927894004119   1.0000000
B2   B   0.761388580956525   0.381632042069557   0.112070255361283   1.0000000
B2   B   0.762746183712398   0.524998782058320   0.109646308887194   1.0000000
B2   B   0.765135804261174   0.669416754723062   0.114902330272740   1.0000000
B2   B   0.763818907339912   0.811690147183986   0.117932482776435   1.0000000
N2   N   0.953115534207671   0.905397400699194   0.118339641689609   1.0000000
N2   N   0.952226131336358   0.047916881340023   0.118371175927899   1.0000000
N2   N   0.951743001960807   0.190648607499477   0.117855963088916   1.0000000
N2   N   0.951808182352469   0.333576211773013   0.116701302265939   1.0000000
N2   N   0.952477882185424   0.476432866419478   0.115813936649857   1.0000000
N2   N   0.953175957419817   0.619287009039050   0.115729624833318   1.0000000
N2   N   0.953379481723370   0.762326156308048   0.117380976421111   1.0000000
N2   N   0.095624753918598   0.904529666614312   0.117537720407936   1.0000000
N2   N   0.094757089488979   0.047036514902575   0.118344634152156   1.0000000
N2   N   0.093807494272617   0.189529630235512   0.118765114087057   1.0000000
N2   N   0.094164608475148   0.332942646642075   0.115302483861844   1.0000000
N2   N   0.095426851810077   0.476071869059593   0.113318670192496   1.0000000
N2   N   0.096049867534006   0.618900639078313   0.114104908032332   1.0000000
N2   N   0.095965983438549   0.761722975822394   0.116079490838420   1.0000000
N2   N   0.238429555082640   0.904187434037983   0.116073772368068   1.0000000
N2   N   0.237829339316153   0.046775995386825   0.117387230949346   1.0000000
N2   N   0.236271021725415   0.188591659581268   0.118610289466956   1.0000000
N2   N   0.234799276236989   0.330708211219098   0.113928973238400   1.0000000
N2   N   0.237972475209257   0.475254278354804   0.104699526116672   1.0000000
N2   N   0.239113610994747   0.618501820543143   0.106120842649869   1.0000000
N2   N   0.238777842994921   0.761367427686364   0.112149071254074   1.0000000
N2   N   0.381245760897772   0.904100748782533   0.114088881409528   1.0000000
N2   N   0.380867060027880   0.046975929382478   0.115711814406080   1.0000000
N2   N   0.380118082514568   0.189365496322952   0.114332416652444   1.0000000
N2   N   0.376957958133098   0.329680370485239   0.107217758071283   1.0000000
N2   N   0.374345199015711   0.468409341983824   0.082460107498061   1.0000000
N2   N   0.382345839124905   0.617802865574695   0.089879297846681   1.0000000
N2   N   0.381653754125554   0.761041049554608   0.106125674150579   1.0000000
N2   N   0.524077996381004   0.904724586457327   0.113315937183681   1.0000000
N2   N   0.523711536845787   0.047667916117058   0.115795099082818   1.0000000
N2   N   0.523292839814791   0.190634065154038   0.112587154221897   1.0000000
N2   N   0.522211026866865   0.333384264896173   0.100204690074524   1.0000000
N2   N   0.531748398790909   0.625817506807401   0.082439538358213   1.0000000
N2   N   0.524897943518371   0.762177493467486   0.104695935938404   1.0000000
N2   N   0.667201174645081   0.905974782316779   0.115320756249524   1.0000000
N2   N   0.666572479668444   0.048337828611494   0.116697307403304   1.0000000
N2   N   0.666180343465812   0.191256391010383   0.115204390087171   1.0000000
N2   N   0.665690577103174   0.334456394429251   0.108810649936033   1.0000000
N2   N   0.666774475645583   0.477944861033433   0.100202899115363   1.0000000
N2   N   0.670477237680001   0.623192123728432   0.107201345553878   1.0000000
N2   N   0.669439335663516   0.765345252700396   0.113920471313350   1.0000000
N2   N   0.810615752769943   0.906338850092712   0.118779864267463   1.0000000
N2   N   0.809492032067001   0.048399181737619   0.117872909984891   1.0000000
N2   N   0.809065607860246   0.191089816698792   0.117265128127764   1.0000000
N2   N   0.808890310536812   0.333964320745533   0.115216641577062   1.0000000
N2   N   0.809515254155630   0.476853215447001   0.112606373761196   1.0000000
N2   N   0.810791448151980   0.620034823307592   0.114333150021914   1.0000000
N2   N   0.811559097391677   0.763877639802937   0.118598744650450   1.0000000
Sb2   Sb   0.495092730201823   0.505038937175663   0.020618705374150   1.0000000


