data_1
_audit_creation_method   'vasp2cif'
_cell_length_a    17.52789999999977
_cell_length_b    17.52789999999977
_cell_length_c    15.0
_cell_angle_alpha    90.0
_cell_angle_beta    90.0
_cell_angle_gamma    119.99999999999916

_symmetry_space_group_name_H-M    'P 1'
loop_
_atom_site_label
_atom_site_type_symbol
_atom_site_fract_x
_atom_site_fract_y
_atom_site_fract_z
_atom_site_occupancy
As2   As   0.495295587955547   0.504705813961436   0.111406167128183   1.0000000
B2   B   0.906081086765842   0.953300849679597   0.111026523618677   1.0000000
B2   B   0.904526373269656   0.095475647926343   0.111036471128970   1.0000000
B2   B   0.904080567209218   0.238289926644028   0.111044800792336   1.0000000
B2   B   0.904323688359788   0.381186311052119   0.111002640062242   1.0000000
B2   B   0.905623451131232   0.524184669142856   0.111098566484967   1.0000000
B2   B   0.907494473227810   0.667598985162042   0.111167264650544   1.0000000
B2   B   0.908068684565436   0.811381769866036   0.111106606307127   1.0000000
B2   B   0.048324650370896   0.951677370825111   0.111009107847595   1.0000000
B2   B   0.046701171516410   0.093920934430167   0.111026523618677   1.0000000
B2   B   0.046316519349598   0.237235319120591   0.111018094808174   1.0000000
B2   B   0.046886872076414   0.380543544758023   0.111020370011841   1.0000000
B2   B   0.048250388199067   0.523449190311992   0.111022381350044   1.0000000
B2   B   0.049203648804599   0.666328411325483   0.111098973552801   1.0000000
B2   B   0.049292561320447   0.809208312244824   0.111067171294006   1.0000000
B2   B   0.190793708951184   0.950709459875540   0.111067171294006   1.0000000
B2   B   0.188620251329974   0.091933336630558   0.111106606307127   1.0000000
B2   B   0.187132739474809   0.234382465626360   0.111055172918962   1.0000000
B2   B   0.188512584640705   0.379227274200449   0.111007926298969   1.0000000
B2   B   0.191108210822214   0.522770142777143   0.111029824767850   1.0000000
B2   B   0.191763254022143   0.665694054246176   0.111043950180080   1.0000000
B2   B   0.191596403056633   0.808405618139365   0.111026293223674   1.0000000
B2   B   0.333673609871508   0.950798372391390   0.111098973552801   1.0000000
B2   B   0.332403036034968   0.092507547968184   0.111167264650544   1.0000000
B2   B   0.328171975363754   0.231184874276051   0.110992824415043   1.0000000
B2   B   0.326630702931748   0.374439369140211   0.110879983551580   1.0000000
B2   B   0.334125598888147   0.521816834646192   0.111012400813037   1.0000000
B2   B   0.334772034707256   0.665229986489739   0.111084917643117   1.0000000
B2   B   0.334307966950829   0.808238767173877   0.111043950180080   1.0000000
B2   B   0.476552830885004   0.951751632996934   0.111022381350044   1.0000000
B2   B   0.475817352054138   0.094378570064756   0.111098566484967   1.0000000
B2   B   0.474330479754224   0.236194192848854   0.111009999583086   1.0000000
B2   B   0.464881789752305   0.369060752269989   0.110811310907720   1.0000000
B2   B   0.478185186550817   0.665876422308839   0.111012400813037   1.0000000
B2   B   0.477231878419869   0.808893810373776   0.111029824767850   1.0000000
B2   B   0.619458476437976   0.953115149119607   0.111020370011841   1.0000000
B2   B   0.618815710143885   0.095678332836202   0.111002640062242   1.0000000
B2   B   0.618282821580830   0.238632698502848   0.111023138160632   1.0000000
B2   B   0.617860356958654   0.382141664237343   0.110894281764426   1.0000000
B2   B   0.630941268926013   0.535120231444682   0.110811310907720   1.0000000
B2   B   0.625562652055785   0.673371318265253   0.110879983551580   1.0000000
B2   B   0.620774746995544   0.811489436555304   0.111007926298969   1.0000000
B2   B   0.762766702075415   0.953685501846386   0.111018094808174   1.0000000
B2   B   0.761712094551973   0.095921453986792   0.111044800792336   1.0000000
B2   B   0.761316238760818   0.238685782435182   0.111052904489839   1.0000000
B2   B   0.761369322693158   0.381719199615169   0.111023138160632   1.0000000
B2   B   0.763807828347151   0.525671541442776   0.111009999583086   1.0000000
B2   B   0.768817146919970   0.671830045833249   0.110992824415043   1.0000000
B2   B   0.765619555569634   0.812869281721179   0.111055172918962   1.0000000
N2   N   0.953807265432938   0.905586411337962   0.111007996413902   1.0000000
N2   N   0.952237511362099   0.047763890555890   0.110997279929951   1.0000000
N2   N   0.951571673685739   0.190469312274250   0.111018577181233   1.0000000
N2   N   0.951728982383279   0.333447876646160   0.110992523573081   1.0000000
N2   N   0.952663989100380   0.476282008347191   0.111005013694001   1.0000000
N2   N   0.953793504275887   0.619151118459774   0.111146295700716   1.0000000
N2   N   0.954265635835128   0.762384917747422   0.111121043925381   1.0000000
N2   N   0.095978820775276   0.904022581142718   0.110991192680254   1.0000000
N2   N   0.094414990580048   0.046194136485064   0.111007996413902   1.0000000
N2   N   0.093241795320110   0.188721007389917   0.111027577459346   1.0000000
N2   N   0.094026372116225   0.332474102186389   0.111005649187745   1.0000000
N2   N   0.095779723175160   0.475660236933558   0.111000678788898   1.0000000
N2   N   0.096478503393513   0.618461038545279   0.111032575803567   1.0000000
N2   N   0.096523804220360   0.761275212099419   0.111036791338526   1.0000000
N2   N   0.238726189818589   0.903477597697625   0.111036791338526   1.0000000
N2   N   0.237616484170588   0.045735766082878   0.111121043925381   1.0000000
N2   N   0.234722697002559   0.186564556203953   0.111082629402239   1.0000000
N2   N   0.233875548447054   0.329365879650250   0.110989835566248   1.0000000
N2   N   0.238778534997733   0.474588030473753   0.110993566631721   1.0000000
N2   N   0.239583013712405   0.617855109967140   0.111045589823291   1.0000000
N2   N   0.239257799519418   0.760743602398588   0.111015536826087   1.0000000
N2   N   0.381540363372720   0.903522898524484   0.111032575803567   1.0000000
N2   N   0.380850283458231   0.046207897642138   0.111146295700716   1.0000000
N2   N   0.379422500655282   0.188027061811433   0.111076528362080   1.0000000
N2   N   0.373679376517747   0.326114264368828   0.110789920751515   1.0000000
N2   N   0.377193260771727   0.468631022942408   0.110840944374022   1.0000000
N2   N   0.383071295429990   0.616930106488005   0.111058966926345   1.0000000
N2   N   0.382146291950856   0.760418388205609   0.111045589823291   1.0000000
N2   N   0.524341164983455   0.904221678742845   0.111000678788898   1.0000000
N2   N   0.523719393569798   0.047337412817649   0.111005013694001   1.0000000
N2   N   0.522994327326643   0.190436952747385   0.111052331875259   1.0000000
N2   N   0.521597623453994   0.333853253334114   0.110856979101551   1.0000000
N2   N   0.531370378974557   0.622808141146260   0.110840944374022   1.0000000
N2   N   0.525413371443250   0.761222866920271   0.110993566631721   1.0000000
N2   N   0.667527299730615   0.905975029801779   0.111005649187745   1.0000000
N2   N   0.666553525270835   0.048272419534721   0.110992523573081   1.0000000
N2   N   0.665951285928446   0.191315375736055   0.111010429391532   1.0000000
N2   N   0.665215404545989   0.334785997370989   0.110967597163370   1.0000000
N2   N   0.666148148582913   0.478403778462997   0.110856979101551   1.0000000
N2   N   0.673887137548162   0.626322025400233   0.110789920751515   1.0000000
N2   N   0.670635522266755   0.766125853470942   0.110989835566248   1.0000000
N2   N   0.811280394528090   0.906759606597897   0.111027577459346   1.0000000
N2   N   0.809532089643754   0.048429728232260   0.111018577181233   1.0000000
N2   N   0.808901472858569   0.191099929059424   0.111048323819039   1.0000000
N2   N   0.808686026181951   0.334050115988528   0.111010429391532   1.0000000
N2   N   0.809564449170600   0.477007074590353   0.111052331875259   1.0000000
N2   N   0.811974340106571   0.620578901262730   0.111076528362080   1.0000000
N2   N   0.813436845714046   0.765278704915458   0.111082629402239   1.0000000


