data_1
_audit_creation_method   'vasp2cif'
_cell_length_a    17.52789999999977
_cell_length_b    17.52789999999977
_cell_length_c    15.0
_cell_angle_alpha    90.0
_cell_angle_beta    90.0
_cell_angle_gamma    119.99999999999916

_symmetry_space_group_name_H-M    'P 1'
loop_
_atom_site_label
_atom_site_type_symbol
_atom_site_fract_x
_atom_site_fract_y
_atom_site_fract_z
_atom_site_occupancy
B2   B   0.905788454559968   0.954082427885874   0.113870926108623   1.0000000
B2   B   0.905417149562543   0.096546196890082   0.110359819159456   1.0000000
B2   B   0.904957659080405   0.238971728975134   0.113069145129879   1.0000000
B2   B   0.903904166940148   0.381272015935105   0.115258161795124   1.0000000
B2   B   0.902816697368778   0.523813018212997   0.113685026556766   1.0000000
B2   B   0.905787837432261   0.668227350115085   0.120448497326433   1.0000000
B2   B   0.906441509315582   0.811752375573044   0.120864062457661   1.0000000
B2   B   0.048145187735543   0.952967888683132   0.113948032844521   1.0000000
B2   B   0.048301693692803   0.096147854574292   0.112844878528546   1.0000000
B2   B   0.048300460573732   0.238971728975134   0.113069145129879   1.0000000
B2   B   0.047824121132208   0.381363563141412   0.114628962041463   1.0000000
B2   B   0.046929323869469   0.523645880259957   0.114425623706849   1.0000000
B2   B   0.047127511395741   0.666326342400315   0.114139632093053   1.0000000
B2   B   0.047958989365473   0.809828960190643   0.115311405176551   1.0000000
B2   B   0.190064164589345   0.951469047273332   0.114806254793074   1.0000000
B2   B   0.190011776551622   0.094373543106528   0.119173483447618   1.0000000
B2   B   0.191161561917310   0.238327312992354   0.117529841633429   1.0000000
B2   B   0.191654239673960   0.381272015935105   0.115258161795124   1.0000000
B2   B   0.191001235512491   0.523645880259957   0.114425623706849   1.0000000
B2   B   0.190190564582402   0.666096450042806   0.111767397367366   1.0000000
B2   B   0.190025063521952   0.808716021648581   0.111279267683200   1.0000000
B2   B   0.332562283951703   0.950839888779406   0.115319431138706   1.0000000
B2   B   0.331957480727813   0.092716087031017   0.123195248540264   1.0000000
B2   B   0.331859117850532   0.235217512624793   0.120083703233170   1.0000000
B2   B   0.335222004441911   0.380219045163322   0.108606905358703   1.0000000
B2   B   0.335282711523214   0.523813018212997   0.113685026556766   1.0000000
B2   B   0.333483510127579   0.666326342400315   0.114139632093053   1.0000000
B2   B   0.332975637249625   0.808716021648581   0.111279267683200   1.0000000
B2   B   0.475689561806982   0.951469047273332   0.114806254793074   1.0000000
B2   B   0.475044996983205   0.092716087031017   0.123195248540264   1.0000000
B2   B   0.473576072738205   0.232865754796415   0.116920313040329   1.0000000
B2   B   0.466058541352922   0.363362605036366   0.068450272143779   1.0000000
B2   B   0.480659837483798   0.530228710320329   0.095731033291340   1.0000000
B2   B   0.476725903361824   0.668227350115085   0.120448497326433   1.0000000
B2   B   0.476154649948167   0.809828960190643   0.115311405176551   1.0000000
B2   B   0.619107380070594   0.952967888683133   0.113948032844521   1.0000000
B2   B   0.618648157233912   0.094373543106528   0.119173483447617   1.0000000
B2   B   0.617644785454259   0.235217512624792   0.120083703233170   1.0000000
B2   B   0.611590454363449   0.363362605036366   0.068450272143779   1.0000000
B2   B   0.629864337672772   0.545442284666530   0.073130664556836   1.0000000
B2   B   0.620617151608742   0.671468683692341   0.122695887399620   1.0000000
B2   B   0.619597256936471   0.811752375573043   0.120864062457661   1.0000000
B2   B   0.762580364004908   0.954082427885874   0.113870926108623   1.0000000
B2   B   0.762132551560495   0.096147854574292   0.112844878528546   1.0000000
B2   B   0.761452141754041   0.238327312992354   0.117529841633429   1.0000000
B2   B   0.759283431401409   0.380219045163322   0.108606905358703   1.0000000
B2   B   0.763855263515534   0.530228710320329   0.095731033291340   1.0000000
B2   B   0.765137922762607   0.671468683692341   0.122695887399620   1.0000000
B2   B   0.763432558017450   0.812578725355898   0.123192557968147   1.0000000
N2   N   0.953248004383298   0.906271155137386   0.115395583033096   1.0000000
N2   N   0.953140137866488   0.048984557895411   0.110584154304578   1.0000000
N2   N   0.952973172077050   0.191657149624103   0.111059663980893   1.0000000
N2   N   0.952311820894806   0.334122486555972   0.114598716999346   1.0000000
N2   N   0.951141541827206   0.476487575506638   0.115053976348942   1.0000000
N2   N   0.951714288078117   0.619158450037778   0.116398566762961   1.0000000
N2   N   0.953124046688340   0.763180124810781   0.120498201487109   1.0000000
N2   N   0.095163099770410   0.904700272861620   0.113443976958527   1.0000000
N2   N   0.095260056523692   0.047839158465700   0.114262991749253   1.0000000
N2   N   0.095937528363333   0.191331624433266   0.114261882711178   1.0000000
N2   N   0.096098148635170   0.334122486555972   0.114598716999346   1.0000000
N2   N   0.095376251752328   0.476466732086660   0.114667497096527   1.0000000
N2   N   0.094794639182074   0.618741071454434   0.112964437609345   1.0000000
N2   N   0.094832964426953   0.761465185688306   0.112935412972866   1.0000000
N2   N   0.237470397905310   0.903661448348504   0.112610848357450   1.0000000
N2   N   0.237101786175786   0.046134877711887   0.119542267924015   1.0000000
N2   N   0.237127581434209   0.189201703327512   0.122306807697757   1.0000000
N2   N   0.239781804144350   0.333938765228220   0.115749099148432   1.0000000
N2   N   0.239633516653446   0.476487575506638   0.115053976348942   1.0000000
N2   N   0.238232203689369   0.618741071454434   0.112964437609345   1.0000000
N2   N   0.237726515088057   0.761167258759109   0.110229459392603   1.0000000
N2   N   0.380476821860193   0.903661448348504   0.112610848357450   1.0000000
N2   N   0.379856041051932   0.045424599130864   0.121541152071684   1.0000000
N2   N   0.378971936493106   0.187183113506746   0.124817352966396   1.0000000
N2   N   0.379211446098321   0.328982125015794   0.105943900405165   1.0000000
N2   N   0.384861713414385   0.476910316915453   0.106696419877376   1.0000000
N2   N   0.381731644932673   0.619158450037778   0.116398566762961   1.0000000
N2   N   0.380917992678346   0.761465185688306   0.112935412972866   1.0000000
N2   N   0.523822944508203   0.904700272861620   0.113443976958527   1.0000000
N2   N   0.523320574509104   0.046134877711887   0.119542267924015   1.0000000
N2   N   0.522498659986642   0.187183113506746   0.124817352966396   1.0000000
N2   N   0.518774790644888   0.323262098316783   0.089205343327653   1.0000000
N2   N   0.525618042369069   0.621994829677733   0.119428436584804   1.0000000
N2   N   0.524343561095432   0.763180124810781   0.120498201487109   1.0000000
N2   N   0.667310633727085   0.906271155137386   0.115395583033096   1.0000000
N2   N   0.666866584914995   0.047839158465700   0.114262991749253   1.0000000
N2   N   0.666361604866305   0.189201703327512   0.122306807697757   1.0000000
N2   N   0.664058161890470   0.328982125015794   0.105943900405165   1.0000000
N2   N   0.669909562005638   0.625531641039288   0.118255129642616   1.0000000
N2   N   0.668128449640193   0.765402875279621   0.125877979288783   1.0000000
N2   N   0.810612613441695   0.906937743909393   0.116559796829030   1.0000000
N2   N   0.810133614558924   0.048984557895411   0.110584154304578   1.0000000
N2   N   0.809681579043923   0.191331624433266   0.114261882711178   1.0000000
N2   N   0.808444444057872   0.333938765228220   0.115749099148432   1.0000000
N2   N   0.806336086475065   0.476910316915452   0.106696419877376   1.0000000
N2   N   0.810664270281668   0.621994829677733   0.119428436584804   1.0000000
N2   N   0.811561908612420   0.765402875279621   0.125877979288783   1.0000000
Al2   Al   0.520676009231982   0.473125760323826   0.983773103757761   1.0000000
Al2   Al   0.666737234064845   0.473125760323826   0.983773103757761   1.0000000


