data_1
_audit_creation_method   'vasp2cif'
_cell_length_a    14.93631414619966
_cell_length_b    14.936314146199727
_cell_length_c    13.341276283792837
_cell_angle_alpha    90.0
_cell_angle_beta    90.0
_cell_angle_gamma    119.99999999999984

_symmetry_space_group_name_H-M    'P 1'
loop_
_atom_site_label
_atom_site_type_symbol
_atom_site_fract_x
_atom_site_fract_y
_atom_site_fract_z
_atom_site_occupancy
As2   As   0.555555555555557   0.444444444444443   0.375000000000000   1.0000000
N2   N   0.111100609800942   0.055551934354096   0.125049101139159   1.0000000
N2   N   0.611161011951486   0.555655357236293   0.122249201911328   1.0000000
N2   N   0.444450106248796   0.055565324885092   0.125057716654319   1.0000000
N2   N   0.944434675114908   0.555549893751203   0.125057716654319   1.0000000
N2   N   0.777783027713669   0.055558180523499   0.125012479313039   1.0000000
N2   N   0.111106157217442   0.722219745275384   0.624953955151616   1.0000000
N2   N   0.444450106248796   0.722218114697048   0.624942283345681   1.0000000
N2   N   0.277750358568574   0.222210879536382   0.625495588223895   1.0000000
N2   N   0.777789120463617   0.722249641431426   0.625495588223895   1.0000000
N2   N   0.611127187634487   0.222210879536382   0.625495588223895   1.0000000
N2   N   0.944441819476501   0.222216972286331   0.624987520686960   1.0000000
N2   N   0.277780254724615   0.722219745275384   0.125046044848383   1.0000000
N2   N   0.111086994500793   0.222210163917061   0.124928562842914   1.0000000
N2   N   0.444453184484461   0.222239702302249   0.124292405827583   1.0000000
N2   N   0.611127187634487   0.722249641431426   0.124504411776106   1.0000000
N2   N   0.944434675114908   0.722218114697048   0.125057716654319   1.0000000
N2   N   0.777789836082939   0.222210163917061   0.124928562842914   1.0000000
N2   N   0.111108690512622   0.888891309487377   0.624950317727899   1.0000000
N2   N   0.444449285641427   0.888891309487377   0.624950317727899   1.0000000
N2   N   0.277750358568574   0.388872812365513   0.625495588223895   1.0000000
N2   N   0.611161011951486   0.388838988048514   0.627750798088672   1.0000000
N2   N   0.777789836082939   0.888913005499208   0.625071437157086   1.0000000
N2   N   0.944448065645904   0.388882008780173   0.624950898860842   1.0000000
N2   N   0.111100609800942   0.388882008780173   0.125049101139159   1.0000000
N2   N   0.277780254724615   0.888893842782559   0.125046044848383   1.0000000
N2   N   0.611117991219826   0.888899390199058   0.125049101139159   1.0000000
N2   N   0.444344642763708   0.388838988048514   0.122249201911328   1.0000000
N2   N   0.944448065645904   0.888899390199058   0.125049101139159   1.0000000
N2   N   0.777789120463617   0.388872812365513   0.124504411776106   1.0000000
N2   N   0.277781885302953   0.555549893751203   0.624942283345681   1.0000000
N2   N   0.111100609800942   0.055551934354096   0.624950898860842   1.0000000
N2   N   0.611161011951486   0.555655357236293   0.627750798088672   1.0000000
N2   N   0.444450106248796   0.055565324885092   0.624942283345681   1.0000000
N2   N   0.944434675114908   0.555549893751203   0.624942283345681   1.0000000
N2   N   0.111108690512622   0.555550714358572   0.125049682272101   1.0000000
N2   N   0.777783027713669   0.055558180523499   0.624987520686960   1.0000000
N2   N   0.277781885302953   0.055565324885092   0.125057716654319   1.0000000
N2   N   0.444453184484461   0.555546815515539   0.124292405827583   1.0000000
N2   N   0.777760297697750   0.555546815515539   0.124292405827583   1.0000000
N2   N   0.611117991219826   0.055551934354096   0.125049101139159   1.0000000
N2   N   0.444453184484461   0.555546815515539   0.625707594172417   1.0000000
N2   N   0.944441819476501   0.055558180523499   0.125012479313039   1.0000000
N2   N   0.277780254724615   0.722219745275384   0.624953955151616   1.0000000
N2   N   0.111086994500793   0.222210163917061   0.625071437157086   1.0000000
N2   N   0.444453184484461   0.222239702302249   0.625707594172417   1.0000000
N2   N   0.611127187634487   0.722249641431426   0.625495588223895   1.0000000
N2   N   0.944434675114908   0.722218114697048   0.624942283345681   1.0000000
N2   N   0.777789836082939   0.222210163917061   0.625071437157086   1.0000000
N2   N   0.111106157217442   0.722219745275384   0.125046044848383   1.0000000
N2   N   0.444450106248796   0.722218114697048   0.125057716654319   1.0000000
N2   N   0.277750358568574   0.222210879536382   0.124504411776106   1.0000000
N2   N   0.777789120463617   0.722249641431426   0.124504411776106   1.0000000
N2   N   0.611127187634487   0.222210879536382   0.124504411776106   1.0000000
N2   N   0.944441819476501   0.222216972286331   0.125012479313039   1.0000000
N2   N   0.111100609800942   0.388882008780173   0.624950898860842   1.0000000
N2   N   0.277780254724615   0.888893842782559   0.624953955151616   1.0000000
N2   N   0.611117991219826   0.888899390199058   0.624950898860842   1.0000000
N2   N   0.444344642763708   0.388838988048514   0.627750798088672   1.0000000
N2   N   0.944448065645904   0.888899390199058   0.624950898860842   1.0000000
N2   N   0.111108690512622   0.888891309487377   0.125049682272101   1.0000000
N2   N   0.777789120463617   0.388872812365513   0.625495588223895   1.0000000
N2   N   0.444449285641427   0.888891309487377   0.125049682272101   1.0000000
N2   N   0.277750358568574   0.388872812365513   0.124504411776106   1.0000000
N2   N   0.277781885302953   0.555549893751203   0.125057716654319   1.0000000
N2   N   0.611161011951486   0.388838988048514   0.122249201911328   1.0000000
N2   N   0.777789836082939   0.888913005499208   0.124928562842914   1.0000000
N2   N   0.944448065645904   0.388882008780173   0.125049101139159   1.0000000
N2   N   0.111108690512622   0.555550714358572   0.624950317727899   1.0000000
N2   N   0.277781885302953   0.055565324885092   0.624942283345681   1.0000000
N2   N   0.777760297697750   0.555546815515539   0.625707594172417   1.0000000
N2   N   0.611117991219826   0.055551934354096   0.624950898860842   1.0000000
N2   N   0.944441819476501   0.055558180523499   0.624987520686960   1.0000000
N2   N   0.054481374672457   0.110398589738353   0.375000000000000   1.0000000
N2   N   0.555663654936937   0.620444054734397   0.375000000000000   1.0000000
N2   N   0.387677130468997   0.108687594271330   0.375000000000000   1.0000000
N2   N   0.891312405728670   0.612322869531003   0.375000000000000   1.0000000
N2   N   0.722583881732553   0.110398589738353   0.375000000000000   1.0000000
N2   N   0.055558125704691   0.777779832187632   0.875000000000000   1.0000000
N2   N   0.388888373149605   0.777779832187632   0.875000000000000   1.0000000
N2   N   0.222222367989325   0.277777850661334   0.875000000000000   1.0000000
N2   N   0.722222149338667   0.777777632010675   0.875000000000000   1.0000000
N2   N   0.555550024463016   0.277769285186092   0.875000000000000   1.0000000
N2   N   0.888890714608975   0.277780054117099   0.875000000000000   1.0000000
N2   N   0.222222222222221   0.777777777777779   0.375000000000000   1.0000000
N2   N   0.054481374672457   0.277416118267447   0.375000000000000   1.0000000
N2   N   0.379555945265604   0.268552933535876   0.375000000000000   1.0000000
N2   N   0.555161928855692   0.781451756314294   0.375000000000000   1.0000000
N2   N   0.892956494125267   0.781451756314294   0.375000000000000   1.0000000
N2   N   0.723946436908061   0.276053563091939   0.375000000000000   1.0000000
N2   N   0.055556177663687   0.944443822336312   0.875000000000000   1.0000000
N2   N   0.388888373149605   0.944441874295309   0.875000000000000   1.0000000
N2   N   0.222220074718360   0.444447687286708   0.875000000000000   1.0000000
N2   N   0.555555555555557   0.444444444444443   0.875000000000000   1.0000000
N2   N   0.722219945882900   0.944443993825213   0.875000000000000   1.0000000
N2   N   0.888894279235006   0.444447687286708   0.875000000000000   1.0000000
N2   N   0.055745367906702   0.444824069146732   0.375000000000000   1.0000000
N2   N   0.221848696453412   0.943454761180834   0.375000000000000   1.0000000
N2   N   0.555175930853268   0.944254632093298   0.375000000000000   1.0000000
N2   N   0.379555945265604   0.444336345063063   0.375000000000000   1.0000000
N2   N   0.889601410261647   0.945518625327544   0.375000000000000   1.0000000
N2   N   0.731447066464124   0.444336345063063   0.375000000000000   1.0000000
N2   N   0.222220167812368   0.611111626850395   0.875000000000000   1.0000000
N2   N   0.055556006174788   0.111109285391025   0.875000000000000   1.0000000
N2   N   0.555550024463016   0.611114072610266   0.875000000000000   1.0000000
N2   N   0.388884843640007   0.111103020613356   0.875000000000000   1.0000000
N2   N   0.888896979386644   0.611115156359994   0.875000000000000   1.0000000
N2   N   0.056545238819167   0.611727268605914   0.375000000000000   1.0000000
N2   N   0.722219945882900   0.111109285391025   0.875000000000000   1.0000000
N2   N   0.218548243685705   0.107043505874733   0.375000000000000   1.0000000
N2   N   0.387677130468997   0.612322869531003   0.375000000000000   1.0000000
N2   N   0.731447066464124   0.620444054734397   0.375000000000000   1.0000000
N2   N   0.555161928855692   0.107043505874733   0.375000000000000   1.0000000
N2   N   0.388884843640007   0.611115156359994   0.875000000000000   1.0000000
N2   N   0.888888888888886   0.111111111111114   0.375000000000000   1.0000000
N2   N   0.222222222222221   0.777777777777779   0.875000000000000   1.0000000
N2   N   0.055556006174788   0.277780054117099   0.875000000000000   1.0000000
N2   N   0.388885927389734   0.277769285186092   0.875000000000000   1.0000000
N2   N   0.555552312713291   0.777779925281640   0.875000000000000   1.0000000
N2   N   0.888894279235006   0.777779925281640   0.875000000000000   1.0000000
N2   N   0.722222149338667   0.277777850661334   0.875000000000000   1.0000000
N2   N   0.056545238819167   0.778151303546588   0.375000000000000   1.0000000
N2   N   0.388272731394086   0.778151303546588   0.375000000000000   1.0000000
N2   N   0.218773792850535   0.276053563091939   0.375000000000000   1.0000000
N2   N   0.723946436908061   0.781226207149465   0.375000000000000   1.0000000
N2   N   0.555663654936937   0.268552933535876   0.375000000000000   1.0000000
N2   N   0.889601410261647   0.277416118267447   0.375000000000000   1.0000000
N2   N   0.055556177663687   0.444445688660703   0.875000000000000   1.0000000
N2   N   0.222220167812368   0.944441874295309   0.875000000000000   1.0000000
N2   N   0.555554311339297   0.944443822336312   0.875000000000000   1.0000000
N2   N   0.388885927389734   0.444449975536985   0.875000000000000   1.0000000
N2   N   0.888890714608975   0.944443993825213   0.875000000000000   1.0000000
N2   N   0.055745367906702   0.944254632093298   0.375000000000000   1.0000000
N2   N   0.722230714813908   0.444449975536985   0.875000000000000   1.0000000
N2   N   0.388272731394086   0.943454761180834   0.375000000000000   1.0000000
N2   N   0.218548243685705   0.444838071144309   0.375000000000000   1.0000000
N2   N   0.221848696453412   0.611727268605914   0.375000000000000   1.0000000
N2   N   0.722583881732553   0.945518625327544   0.375000000000000   1.0000000
N2   N   0.892956494125267   0.444838071144309   0.375000000000000   1.0000000
N2   N   0.055558125704691   0.611111626850395   0.875000000000000   1.0000000
N2   N   0.222220074718360   0.111105720764994   0.875000000000000   1.0000000
N2   N   0.722230714813908   0.611114072610266   0.875000000000000   1.0000000
N2   N   0.555552312713291   0.111105720764994   0.875000000000000   1.0000000
N2   N   0.888888888888886   0.111111111111114   0.875000000000000   1.0000000
B2   B   0.108990262155216   0.053919048399114   0.375000000000000   1.0000000
B2   B   0.623690941349553   0.580715216032429   0.375000000000000   1.0000000
B2   B   0.443986703519750   0.053777046885847   0.375000000000000   1.0000000
B2   B   0.946222953114153   0.556013296480250   0.375000000000000   1.0000000
B2   B   0.778274115806661   0.055803724569998   0.375000000000000   1.0000000
B2   B   0.111109843061933   0.722221588197631   0.875000000000000   1.0000000
B2   B   0.444444059543944   0.722218094459732   0.875000000000000   1.0000000
B2   B   0.277793012631601   0.222230609657523   0.875000000000000   1.0000000
B2   B   0.777769390342477   0.722206987368399   0.875000000000000   1.0000000
B2   B   0.611104263692585   0.222230609657523   0.875000000000000   1.0000000
B2   B   0.944445266479685   0.222223866292697   0.875000000000000   1.0000000
B2   B   0.277500163066480   0.722499836933520   0.375000000000000   1.0000000
B2   B   0.108800550936314   0.221066942134818   0.375000000000000   1.0000000
B2   B   0.442834227347836   0.219001788029000   0.375000000000000   1.0000000
B2   B   0.612212091988794   0.729385347393563   0.375000000000000   1.0000000
B2   B   0.946222953114153   0.723542989967239   0.375000000000000   1.0000000
B2   B   0.778933057865182   0.221066942134818   0.375000000000000   1.0000000
B2   B   0.111110699651403   0.888889300348597   0.875000000000000   1.0000000
B2   B   0.444445267363864   0.888889300348597   0.875000000000000   1.0000000
B2   B   0.277793012631601   0.388895736307415   0.875000000000000   1.0000000
B2   B   0.611098353318076   0.388901646681924   0.875000000000000   1.0000000
B2   B   0.777773716009569   0.888880765352460   0.875000000000000   1.0000000
B2   B   0.944442074674110   0.388890476855574   0.875000000000000   1.0000000
B2   B   0.108990262155216   0.388404547089431   0.375000000000000   1.0000000
B2   B   0.277500163066480   0.888333659466282   0.375000000000000   1.0000000
B2   B   0.611595452910569   0.891009737844784   0.375000000000000   1.0000000
B2   B   0.419284783967572   0.376309058650446   0.375000000000000   1.0000000
B2   B   0.946080951600886   0.891009737844784   0.375000000000000   1.0000000
B2   B   0.783839922071448   0.387787908011206   0.375000000000000   1.0000000
B2   B   0.277781905540268   0.555555940456056   0.875000000000000   1.0000000
B2   B   0.111115068848137   0.055557925325891   0.875000000000000   1.0000000
B2   B   0.611098353318076   0.555530039969474   0.875000000000000   1.0000000
B2   B   0.444444059543944   0.055559298417548   0.875000000000000   1.0000000
B2   B   0.944440701582453   0.555555940456056   0.875000000000000   1.0000000
B2   B   0.111243206485432   0.555819746304193   0.375000000000000   1.0000000
B2   B   0.777776133707303   0.055554733520316   0.875000000000000   1.0000000
B2   B   0.276457010032761   0.053777046885847   0.375000000000000   1.0000000
B2   B   0.442834227347836   0.557165772652164   0.375000000000000   1.0000000
B2   B   0.780998211971000   0.557165772652164   0.375000000000000   1.0000000
B2   B   0.611595452910569   0.053919048399114   0.375000000000000   1.0000000
B2   B   0.444449917256027   0.555550082743967   0.875000000000000   1.0000000
B2   B   0.944196275430002   0.055803724569998   0.375000000000000   1.0000000
B2   B   0.277778411802370   0.722221588197631   0.875000000000000   1.0000000
B2   B   0.111119234647541   0.222226283990431   0.875000000000000   1.0000000
B2   B   0.444449917256027   0.222233167845396   0.875000000000000   1.0000000
B2   B   0.611104263692585   0.722206987368399   0.875000000000000   1.0000000
B2   B   0.944440701582453   0.722218094459732   0.875000000000000   1.0000000
B2   B   0.777773716009569   0.222226283990431   0.875000000000000   1.0000000
B2   B   0.111666340533719   0.722499836933520   0.375000000000000   1.0000000
B2   B   0.443986703519750   0.723542989967239   0.375000000000000   1.0000000
B2   B   0.270614652606437   0.216160077928553   0.375000000000000   1.0000000
B2   B   0.783839922071448   0.729385347393563   0.375000000000000   1.0000000
B2   B   0.612212091988794   0.216160077928553   0.375000000000000   1.0000000
B2   B   0.944196275430002   0.221725884193340   0.375000000000000   1.0000000
B2   B   0.111115068848137   0.388890476855574   0.875000000000000   1.0000000
B2   B   0.277778411802370   0.888890156938067   0.875000000000000   1.0000000
B2   B   0.611109523144425   0.888884931151863   0.875000000000000   1.0000000
B2   B   0.444469960030527   0.388901646681924   0.875000000000000   1.0000000
B2   B   0.944442074674110   0.888884931151863   0.875000000000000   1.0000000
B2   B   0.111243206485432   0.888756793514567   0.375000000000000   1.0000000
B2   B   0.777769390342477   0.388895736307415   0.875000000000000   1.0000000
B2   B   0.444180253695807   0.888756793514567   0.375000000000000   1.0000000
B2   B   0.270614652606437   0.387787908011206   0.375000000000000   1.0000000
B2   B   0.276457010032761   0.556013296480250   0.375000000000000   1.0000000
B2   B   0.623690941349553   0.376309058650446   0.375000000000000   1.0000000
B2   B   0.778933057865182   0.891199449063685   0.375000000000000   1.0000000
B2   B   0.946080951600886   0.388404547089431   0.375000000000000   1.0000000
B2   B   0.111110699651403   0.555554732636136   0.875000000000000   1.0000000
B2   B   0.277781905540268   0.055559298417548   0.875000000000000   1.0000000
B2   B   0.777766832154603   0.555550082743967   0.875000000000000   1.0000000
B2   B   0.611109523144425   0.055557925325891   0.875000000000000   1.0000000
B2   B   0.944445266479685   0.055554733520316   0.875000000000000   1.0000000
B2   B   0.055542931966451   0.111107863592098   0.124988024142941   1.0000000
B2   B   0.555603591566414   0.611084952805612   0.123611026318549   1.0000000
B2   B   0.388914448530553   0.111162230394450   0.124843784897875   1.0000000
B2   B   0.888837769605551   0.611085551469447   0.124843784897875   1.0000000
B2   B   0.722231598292311   0.111107863592098   0.124988024142941   1.0000000
B2   B   0.055543521823637   0.777774076793168   0.624987356106039   1.0000000
B2   B   0.388897221636188   0.777774076793168   0.624987356106039   1.0000000
B2   B   0.222200587837060   0.277766960585194   0.625419517317166   1.0000000
B2   B   0.722233039414805   0.777799412162940   0.625419517317166   1.0000000
B2   B   0.555603591566414   0.277851972094137   0.626388973681451   1.0000000
B2   B   0.888892136407902   0.277768401707689   0.625011975857059   1.0000000
B2   B   0.222222222222221   0.777777777777779   0.124993543126471   1.0000000
B2   B   0.055542931966451   0.277768401707689   0.124988024142941   1.0000000
B2   B   0.388915047194388   0.277851972094137   0.123611026318549   1.0000000
B2   B   0.555573397740509   0.777783637479716   0.124876831176854   1.0000000
B2   B   0.888876906405864   0.777783637479716   0.124876831176854   1.0000000
B2   B   0.722233039414805   0.277766960585194   0.124580482682834   1.0000000
B2   B   0.055550185441226   0.944449814558774   0.624980108182261   1.0000000
B2   B   0.388897221636188   0.944456478176363   0.624987356106039   1.0000000
B2   B   0.222216362520284   0.444426602259491   0.625123168823145   1.0000000
B2   B   0.555555555555557   0.444444444444443   0.626692132209865   1.0000000
B2   B   0.722231598292311   0.944457068033549   0.625011975857059   1.0000000
B2   B   0.888876906405864   0.444426602259491   0.625123168823145   1.0000000
B2   B   0.055550185441226   0.444433704215773   0.125019891817739   1.0000000
B2   B   0.222225923206832   0.944456478176363   0.125012643893961   1.0000000
B2   B   0.555566295784226   0.944449814558774   0.125019891817739   1.0000000
B2   B   0.388915047194388   0.444396408433586   0.123611026318549   1.0000000
B2   B   0.888892136407902   0.944457068033549   0.124988024142941   1.0000000
B2   B   0.722148027905863   0.444396408433586   0.123611026318549   1.0000000
B2   B   0.222225923206832   0.611102778363811   0.624987356106039   1.0000000
B2   B   0.055542931966451   0.111107863592098   0.625011975857059   1.0000000
B2   B   0.555603591566414   0.611084952805612   0.626388973681451   1.0000000
B2   B   0.388914448530553   0.111162230394450   0.625156215102125   1.0000000
B2   B   0.888837769605551   0.611085551469447   0.625156215102125   1.0000000
B2   B   0.055543521823637   0.611102778363811   0.125012643893961   1.0000000
B2   B   0.722231598292311   0.111107863592098   0.625011975857059   1.0000000
B2   B   0.222216362520284   0.111123093594135   0.124876831176854   1.0000000
B2   B   0.388914448530553   0.611085551469447   0.124843784897875   1.0000000
B2   B   0.722148027905863   0.611084952805612   0.123611026318549   1.0000000
B2   B   0.555573397740509   0.111123093594135   0.124876831176854   1.0000000
B2   B   0.388914448530553   0.611085551469447   0.625156215102125   1.0000000
B2   B   0.888888888888886   0.111111111111114   0.124994532710405   1.0000000
B2   B   0.222222222222221   0.777777777777779   0.625006456873530   1.0000000
B2   B   0.055542931966451   0.277768401707689   0.625011975857059   1.0000000
B2   B   0.388915047194388   0.277851972094137   0.626388973681451   1.0000000
B2   B   0.555573397740509   0.777783637479716   0.625123168823145   1.0000000
B2   B   0.888876906405864   0.777783637479716   0.625123168823145   1.0000000
B2   B   0.722233039414805   0.277766960585194   0.625419517317166   1.0000000
B2   B   0.055543521823637   0.777774076793168   0.125012643893961   1.0000000
B2   B   0.388897221636188   0.777774076793168   0.125012643893961   1.0000000
B2   B   0.222200587837060   0.277766960585194   0.124580482682834   1.0000000
B2   B   0.722233039414805   0.777799412162940   0.124580482682834   1.0000000
B2   B   0.555603591566414   0.277851972094137   0.123611026318549   1.0000000
B2   B   0.888892136407902   0.277768401707689   0.124988024142941   1.0000000
B2   B   0.055550185441226   0.444433704215773   0.624980108182261   1.0000000
B2   B   0.222225923206832   0.944456478176363   0.624987356106039   1.0000000
B2   B   0.555566295784226   0.944449814558774   0.624980108182261   1.0000000
B2   B   0.388915047194388   0.444396408433586   0.626388973681451   1.0000000
B2   B   0.888892136407902   0.944457068033549   0.625011975857059   1.0000000
B2   B   0.055550185441226   0.944449814558774   0.125019891817739   1.0000000
B2   B   0.722148027905863   0.444396408433586   0.626388973681451   1.0000000
B2   B   0.388897221636188   0.944456478176363   0.125012643893961   1.0000000
B2   B   0.222216362520284   0.444426602259491   0.124876831176854   1.0000000
B2   B   0.222225923206832   0.611102778363811   0.125012643893961   1.0000000
B2   B   0.555555555555557   0.444444444444443   0.123307867790135   1.0000000
B2   B   0.722231598292311   0.944457068033549   0.124988024142941   1.0000000
B2   B   0.888876906405864   0.444426602259491   0.124876831176854   1.0000000
B2   B   0.055543521823637   0.611102778363811   0.624987356106039   1.0000000
B2   B   0.222216362520284   0.111123093594135   0.625123168823145   1.0000000
B2   B   0.722148027905863   0.611084952805612   0.626388973681451   1.0000000
B2   B   0.555573397740509   0.111123093594135   0.625123168823145   1.0000000
B2   B   0.888888888888886   0.111111111111114   0.625005467289594   1.0000000


