data_1
_audit_creation_method   'vasp2cif'
_cell_length_a    14.93631414619966
_cell_length_b    14.936314146199727
_cell_length_c    13.341276283792837
_cell_angle_alpha    90.0
_cell_angle_beta    90.0
_cell_angle_gamma    119.99999999999984

_symmetry_space_group_name_H-M    'P 1'
loop_
_atom_site_label
_atom_site_type_symbol
_atom_site_fract_x
_atom_site_fract_y
_atom_site_fract_z
_atom_site_occupancy
O2   O   0.440433389334912   0.386883361334125   0.375000000000000   1.0000000
N2   N   0.111034495648589   0.055515320578958   0.124727789744562   1.0000000
N2   N   0.611079260921666   0.555524992828302   0.128075574102623   1.0000000
N2   N   0.444371117578885   0.055536736146399   0.125178105541421   1.0000000
N2   N   0.944388513993187   0.555529580168043   0.125523363108854   1.0000000
N2   N   0.777674567621296   0.055503950477314   0.125148228399620   1.0000000
N2   N   0.111048296076756   0.722190814705042   0.624883667407767   1.0000000
N2   N   0.444371117578885   0.722167714765813   0.624821894458582   1.0000000
N2   N   0.277708719808490   0.222199597028059   0.625270049362087   1.0000000
N2   N   0.777717283534170   0.722169408435745   0.623632890622846   1.0000000
N2   N   0.611037952083912   0.222220710688788   0.623919486848808   1.0000000
N2   N   0.944350342081142   0.222179976027260   0.625006383586420   1.0000000
N2   N   0.277703878334626   0.722180112996868   0.125022896075144   1.0000000
N2   N   0.111011011249742   0.222172172291531   0.124553770334693   1.0000000
N2   N   0.444411824848279   0.222227866929409   0.125805390961049   1.0000000
N2   N   0.611037952083912   0.722150574728461   0.126080513151194   1.0000000
N2   N   0.944388513993187   0.722192267158479   0.125523363108854   1.0000000
N2   N   0.777688297663528   0.222198441706276   0.125420793620368   1.0000000
N2   N   0.111044888339500   0.888857547781944   0.625022753704860   1.0000000
N2   N   0.444357779881910   0.888845556607615   0.624881635726241   1.0000000
N2   N   0.277708719808490   0.388842456113757   0.625270049362087   1.0000000
N2   N   0.611079260921666   0.388887601426692   0.621924425897374   1.0000000
N2   N   0.777688297663528   0.888823189290583   0.624579206379634   1.0000000
N2   N   0.944371543349944   0.388860069165857   0.624808338080040   1.0000000
N2   N   0.111034495648589   0.388852508402960   0.124727789744562   1.0000000
N2   N   0.277703878334626   0.888857098671079   0.125022896075144   1.0000000
N2   N   0.611013916428545   0.888827931079072   0.125207078485369   1.0000000
N2   N   0.444389247804315   0.388861290568823   0.126126436301082   1.0000000
N2   N   0.944371543349944   0.888844807517415   0.125191661919962   1.0000000
N2   N   0.777717283534170   0.388881208431754   0.126367109377154   1.0000000
N2   N   0.277717664113030   0.555516447081059   0.625205792223701   1.0000000
N2   N   0.111034495648589   0.055515320578958   0.625272210255438   1.0000000
N2   N   0.611079260921666   0.555524992828302   0.621924425897374   1.0000000
N2   N   0.444371117578885   0.055536736146399   0.624821894458582   1.0000000
N2   N   0.944388513993187   0.555529580168043   0.624476636891146   1.0000000
N2   N   0.111044888339500   0.555520673890879   0.124977246295140   1.0000000
N2   N   0.777674567621296   0.055503950477314   0.624851771600383   1.0000000
N2   N   0.277717664113030   0.055534550365305   0.124794207776309   1.0000000
N2   N   0.444411824848279   0.555517291252200   0.125805390961049   1.0000000
N2   N   0.777735291742526   0.555534312537933   0.127108782578475   1.0000000
N2   N   0.611013916428545   0.055519318682802   0.125207078485369   1.0000000
N2   N   0.444411824848279   0.555517291252200   0.624194609038952   1.0000000
N2   N   0.944350342081142   0.055503699387219   0.124993616413579   1.0000000
N2   N   0.277703878334626   0.722180112996868   0.624977103924851   1.0000000
N2   N   0.111011011249742   0.222172172291531   0.625446229665307   1.0000000
N2   N   0.444411824848279   0.222227866929409   0.624194609038952   1.0000000
N2   N   0.611037952083912   0.722150574728461   0.623919486848808   1.0000000
N2   N   0.944388513993187   0.722192267158479   0.624476636891146   1.0000000
N2   N   0.777688297663528   0.222198441706276   0.624579206379634   1.0000000
N2   N   0.111048296076756   0.722190814705042   0.125116332592230   1.0000000
N2   N   0.444371117578885   0.722167714765813   0.125178105541421   1.0000000
N2   N   0.277708719808490   0.222199597028059   0.124729950637914   1.0000000
N2   N   0.777717283534170   0.722169408435745   0.126367109377154   1.0000000
N2   N   0.611037952083912   0.222220710688788   0.126080513151194   1.0000000
N2   N   0.944350342081142   0.222179976027260   0.124993616413579   1.0000000
N2   N   0.111034495648589   0.388852508402960   0.625272210255438   1.0000000
N2   N   0.277703878334626   0.888857098671079   0.624977103924851   1.0000000
N2   N   0.611013916428545   0.888827931079072   0.624792921514631   1.0000000
N2   N   0.444389247804315   0.388861290568823   0.623873563698917   1.0000000
N2   N   0.944371543349944   0.888844807517415   0.624808338080040   1.0000000
N2   N   0.111044888339500   0.888857547781944   0.124977246295140   1.0000000
N2   N   0.777717283534170   0.388881208431754   0.623632890622846   1.0000000
N2   N   0.444357779881910   0.888845556607615   0.125118364273760   1.0000000
N2   N   0.277708719808490   0.388842456113757   0.124729950637914   1.0000000
N2   N   0.277717664113030   0.555516447081059   0.124794207776309   1.0000000
N2   N   0.611079260921666   0.388887601426692   0.128075574102623   1.0000000
N2   N   0.777688297663528   0.888823189290583   0.125420793620368   1.0000000
N2   N   0.944371543349944   0.388860069165857   0.125191661919962   1.0000000
N2   N   0.111044888339500   0.555520673890879   0.625022753704860   1.0000000
N2   N   0.277717664113030   0.055534550365305   0.625205792223701   1.0000000
N2   N   0.777735291742526   0.555534312537933   0.622891217421521   1.0000000
N2   N   0.611013916428545   0.055519318682802   0.624792921514631   1.0000000
N2   N   0.944350342081142   0.055503699387219   0.625006383586420   1.0000000
N2   N   0.053359675069835   0.109823612812901   0.375000000000000   1.0000000
N2   N   0.555197931933059   0.603384201821404   0.375000000000000   1.0000000
N2   N   0.389470277330351   0.115321679467022   0.375000000000000   1.0000000
N2   N   0.892713444206237   0.613023388769795   0.375000000000000   1.0000000
N2   N   0.721109945457336   0.111209352590507   0.375000000000000   1.0000000
N2   N   0.055583576399932   0.777791437314481   0.875000000000000   1.0000000
N2   N   0.388932029937517   0.777801412403090   0.875000000000000   1.0000000
N2   N   0.222260430169674   0.277796881751504   0.875000000000000   1.0000000
N2   N   0.722262524190980   0.777797417231961   0.875000000000000   1.0000000
N2   N   0.555603089899411   0.277803777357690   0.875000000000000   1.0000000
N2   N   0.888926222610816   0.277797039937137   0.875000000000000   1.0000000
N2   N   0.224099951389923   0.778716642361629   0.375000000000000   1.0000000
N2   N   0.053359675069835   0.276869395590263   0.375000000000000   1.0000000
N2   N   0.383591037362903   0.277967771439741   0.375000000000000   1.0000000
N2   N   0.555452191836295   0.774762813456596   0.375000000000000   1.0000000
N2   N   0.890435057851117   0.778389711636015   0.375000000000000   1.0000000
N2   N   0.721625866210412   0.279183716925263   0.375000000000000   1.0000000
N2   N   0.055587905795884   0.944459826551833   0.875000000000000   1.0000000
N2   N   0.388932029937517   0.944463950867765   0.875000000000000   1.0000000
N2   N   0.222257466043583   0.444463370254683   0.875000000000000   1.0000000
N2   N   0.555604369068819   0.444468851201077   0.875000000000000   1.0000000
N2   N   0.722261176486466   0.944465932581328   0.875000000000000   1.0000000
N2   N   0.888923353500106   0.444460513868237   0.875000000000000   1.0000000
N2   N   0.055880322943190   0.444389741020278   0.375000000000000   1.0000000
N2   N   0.223632122745823   0.946111522818983   0.375000000000000   1.0000000
N2   N   0.555493462560307   0.944413397946814   0.375000000000000   1.0000000
N2   N   0.383591037362903   0.438956599256499   0.375000000000000   1.0000000
N2   N   0.887694279567339   0.943339074396657   0.375000000000000   1.0000000
N2   N   0.726032223554345   0.447809348744046   0.375000000000000   1.0000000
N2   N   0.222255155664932   0.611127967088902   0.875000000000000   1.0000000
N2   N   0.055588030473327   0.111126592871285   0.875000000000000   1.0000000
N2   N   0.555603089899411   0.611132645875052   0.875000000000000   1.0000000
N2   N   0.388933735097777   0.111135011373342   0.875000000000000   1.0000000
N2   N   0.888918229162400   0.611125781247875   0.875000000000000   1.0000000
N2   N   0.057843103139808   0.611972829431429   0.375000000000000   1.0000000
N2   N   0.722261176486466   0.111128577238471   0.875000000000000   1.0000000
N2   N   0.221510494679217   0.111557649603168   0.375000000000000   1.0000000
N2   N   0.389470277330351   0.607481931196666   0.375000000000000   1.0000000
N2   N   0.726032223554345   0.611556208143633   0.375000000000000   1.0000000
N2   N   0.555452191836295   0.114022711713036   0.375000000000000   1.0000000
N2   N   0.388933735097777   0.611132057057777   0.875000000000000   1.0000000
N2   N   0.887109782967592   0.110221558150464   0.375000000000000   1.0000000
N2   N   0.222256984452628   0.777795158892979   0.875000000000000   1.0000000
N2   N   0.055588030473327   0.277794770935377   0.875000000000000   1.0000000
N2   N   0.388935215121633   0.277801924312103   0.875000000000000   1.0000000
N2   N   0.555599699362683   0.777800086831104   0.875000000000000   1.0000000
N2   N   0.888923353500106   0.777796172965207   0.875000000000000   1.0000000
N2   N   0.722262524190980   0.277798440292352   0.875000000000000   1.0000000
N2   N   0.057843103139808   0.779203607041716   0.375000000000000   1.0000000
N2   N   0.389977273016837   0.777020040797801   0.375000000000000   1.0000000
N2   N   0.217772313406430   0.275552823369880   0.375000000000000   1.0000000
N2   N   0.721625866210412   0.775775482618486   0.375000000000000   1.0000000
N2   N   0.555197931933059   0.285147063444986   0.375000000000000   1.0000000
N2   N   0.887694279567339   0.277688538504023   0.375000000000000   1.0000000
N2   N   0.055587905795884   0.444461412577381   0.875000000000000   1.0000000
N2   N   0.222255155664932   0.944460521909360   0.875000000000000   1.0000000
N2   N   0.555598378040790   0.944465855687058   0.875000000000000   1.0000000
N2   N   0.388935215121633   0.444466624142866   0.875000000000000   1.0000000
N2   N   0.888926222610816   0.944462516007017   0.875000000000000   1.0000000
N2   N   0.055880322943190   0.944823915256242   0.375000000000000   1.0000000
N2   N   0.722260685978401   0.444464465609496   0.875000000000000   1.0000000
N2   N   0.389977273016837   0.946290565552374   0.375000000000000   1.0000000
N2   N   0.221510494679217   0.443286178409385   0.375000000000000   1.0000000
N2   N   0.223632122745823   0.610853933260173   0.375000000000000   1.0000000
N2   N   0.721109945457336   0.943233926200172   0.375000000000000   1.0000000
N2   N   0.890435057851117   0.445378679548435   0.375000000000000   1.0000000
N2   N   0.055583576399932   0.611125472418785   0.875000000000000   1.0000000
N2   N   0.222257466043583   0.111127429122236   0.875000000000000   1.0000000
N2   N   0.722260685978401   0.611129553702242   0.875000000000000   1.0000000
N2   N   0.555599699362683   0.111132945864907   0.875000000000000   1.0000000
N2   N   0.888927268204359   0.111130300768851   0.875000000000000   1.0000000
B2   B   0.109974986878473   0.055388594857949   0.375000000000000   1.0000000
B2   B   0.618307282010275   0.557356683540573   0.375000000000000   1.0000000
B2   B   0.444544366116404   0.058025666278159   0.375000000000000   1.0000000
B2   B   0.947264800494378   0.556581462711761   0.375000000000000   1.0000000
B2   B   0.776164463133485   0.054748898233413   0.375000000000000   1.0000000
B2   B   0.111142828651634   0.722238080992481   0.875000000000000   1.0000000
B2   B   0.444486728471552   0.722254418707772   0.875000000000000   1.0000000
B2   B   0.277811190238251   0.222233614210730   0.875000000000000   1.0000000
B2   B   0.777821534845438   0.722248554866832   0.875000000000000   1.0000000
B2   B   0.611158489253602   0.222236933625687   0.875000000000000   1.0000000
B2   B   0.944471552674545   0.222235180518845   0.875000000000000   1.0000000
B2   B   0.278978497214569   0.722249474894920   0.375000000000000   1.0000000
B2   B   0.107098367440801   0.220215850387068   0.375000000000000   1.0000000
B2   B   0.444026879856383   0.226948448238165   0.375000000000000   1.0000000
B2   B   0.610822512681268   0.718723869782843   0.375000000000000   1.0000000
B2   B   0.947264800494378   0.724016671115944   0.375000000000000   1.0000000
B2   B   0.776671446027380   0.222326876890299   0.375000000000000   1.0000000
B2   B   0.111139306711448   0.888898762455397   0.875000000000000   1.0000000
B2   B   0.444486680510222   0.888910006921777   0.875000000000000   1.0000000
B2   B   0.277811190238251   0.388910909360849   0.875000000000000   1.0000000
B2   B   0.611161176675997   0.388914663198276   0.875000000000000   1.0000000
B2   B   0.777818977048035   0.888915257003702   0.875000000000000   1.0000000
B2   B   0.944476456761187   0.388903288669682   0.875000000000000   1.0000000
B2   B   0.109974986878473   0.387919725353853   0.375000000000000   1.0000000
B2   B   0.278978497214569   0.890062355652972   0.375000000000000   1.0000000
B2   B   0.610304086393682   0.887343941978493   0.375000000000000   1.0000000
B2   B   0.944831591805173   0.889323350729221   0.375000000000000   1.0000000
B2   B   0.780016568026892   0.389804023585264   0.375000000000000   1.0000000
B2   B   0.277810085869479   0.555582802044896   0.875000000000000   1.0000000
B2   B   0.111130512227462   0.055559563460660   0.875000000000000   1.0000000
B2   B   0.611161176675997   0.555579846811046   0.875000000000000   1.0000000
B2   B   0.444486728471552   0.055565643097113   0.875000000000000   1.0000000
B2   B   0.944479266156264   0.555573309263884   0.875000000000000   1.0000000
B2   B   0.112490883492394   0.555647918795477   0.375000000000000   1.0000000
B2   B   0.777816469054161   0.055574901193748   0.875000000000000   1.0000000
B2   B   0.278096192078771   0.057062452994873   0.375000000000000   1.0000000
B2   B   0.444026879856383   0.550411764951558   0.375000000000000   1.0000000
B2   B   0.783430423270110   0.558381878301722   0.375000000000000   1.0000000
B2   B   0.610304086393682   0.056293477748521   0.375000000000000   1.0000000
B2   B   0.444491381806323   0.555586608892523   0.875000000000000   1.0000000
B2   B   0.942323177707850   0.054314379909791   0.375000000000000   1.0000000
B2   B   0.277814047028662   0.722246131206068   0.875000000000000   1.0000000
B2   B   0.111128797813734   0.222231065573528   0.875000000000000   1.0000000
B2   B   0.444491381806323   0.222238106247138   0.875000000000000   1.0000000
B2   B   0.611158489253602   0.722254888961236   0.875000000000000   1.0000000
B2   B   0.944479266156264   0.722239290225719   0.875000000000000   1.0000000
B2   B   0.777818977048035   0.222237053377670   0.875000000000000   1.0000000
B2   B   0.113170845700654   0.723252089516995   0.375000000000000   1.0000000
B2   B   0.444544366116404   0.719852033171582   0.375000000000000   1.0000000
B2   B   0.273322894455342   0.221622307741277   0.375000000000000   1.0000000
B2   B   0.780016568026892   0.723545877774956   0.375000000000000   1.0000000
B2   B   0.610822512681268   0.225431976231751   0.375000000000000   1.0000000
B2   B   0.942323177707850   0.221342131131403   0.375000000000000   1.0000000
B2   B   0.111130512227462   0.388904282100131   0.875000000000000   1.0000000
B2   B   0.277814047028662   0.888901249155927   0.875000000000000   1.0000000
B2   B   0.611155602156573   0.888918243913014   0.875000000000000   1.0000000
B2   B   0.444497669840743   0.388915501587040   0.875000000000000   1.0000000
B2   B   0.944476456761187   0.888906501424831   0.875000000000000   1.0000000
B2   B   0.112490883492394   0.890176298030248   0.375000000000000   1.0000000
B2   B   0.777821534845438   0.388906313311935   0.875000000000000   1.0000000
B2   B   0.444703908466228   0.889018620899779   0.375000000000000   1.0000000
B2   B   0.273322894455342   0.385033920047385   0.375000000000000   1.0000000
B2   B   0.278096192078771   0.554367072417239   0.375000000000000   1.0000000
B2   B   0.618307282010275   0.394283931803030   0.375000000000000   1.0000000
B2   B   0.776671446027380   0.887677902470411   0.375000000000000   1.0000000
B2   B   0.944831591805173   0.388841574409280   0.375000000000000   1.0000000
B2   B   0.111139306711449   0.555573877589385   0.875000000000000   1.0000000
B2   B   0.277810085869479   0.055560617157919   0.875000000000000   1.0000000
B2   B   0.777819143793321   0.555576238563334   0.875000000000000   1.0000000
B2   B   0.611155602156573   0.055570691576890   0.875000000000000   1.0000000
B2   B   0.944471552674545   0.055569705489030   0.875000000000000   1.0000000
B2   B   0.055431617775050   0.111028042911098   0.124486470963163   1.0000000
B2   B   0.555527370472045   0.611093150804428   0.126258595011778   1.0000000
B2   B   0.388807954473475   0.111036613534021   0.124848776567894   1.0000000
B2   B   0.888889887022745   0.611111610178045   0.125712117632414   1.0000000
B2   B   0.722133598836459   0.111066252366142   0.125018370575761   1.0000000
B2   B   0.055514119912899   0.777747487135922   0.625031406992286   1.0000000
B2   B   0.388791147271296   0.777749298898365   0.625137365783853   1.0000000
B2   B   0.222074094873521   0.277703714103428   0.625852275355006   1.0000000
B2   B   0.722192140458855   0.777759269410506   0.624335738484628   1.0000000
B2   B   0.555527370472045   0.277767553000943   0.623741404988223   1.0000000
B2   B   0.888814843424352   0.277750866381197   0.625018432056182   1.0000000
B2   B   0.222144739807480   0.777739036570406   0.124861641645414   1.0000000
B2   B   0.055431617775050   0.277736908197289   0.124486470963163   1.0000000
B2   B   0.388851104925680   0.277794149731413   0.125071233475967   1.0000000
B2   B   0.555477702576001   0.777757244735114   0.125144975206842   1.0000000
B2   B   0.888862358375631   0.777758109481843   0.125418107060814   1.0000000
B2   B   0.722192140458855   0.277766204381689   0.125664261515371   1.0000000
B2   B   0.055469216133431   0.944374662278055   0.625273780374286   1.0000000
B2   B   0.388791147271296   0.944375181706257   0.625137365783853   1.0000000
B2   B   0.222104273334295   0.444424834285528   0.625620143111234   1.0000000
B2   B   0.555473109688400   0.444403221510861   0.622458346655896   1.0000000
B2   B   0.722133598836459   0.944400679803664   0.624981629424241   1.0000000
B2   B   0.888862358375631   0.444437582227124   0.624581892939184   1.0000000
B2   B   0.055469216133431   0.444427887188706   0.124726219625715   1.0000000
B2   B   0.222132016289186   0.944366936844451   0.124675366835932   1.0000000
B2   B   0.555451474835654   0.944392404084490   0.124929926683843   1.0000000
B2   B   0.388851104925680   0.444390288527604   0.125071233475967   1.0000000
B2   B   0.888814843424352   0.944397310376500   0.124981567943819   1.0000000
B2   B   0.722222441019324   0.444456479464716   0.126964341433751   1.0000000
B2   B   0.222132016289186   0.611098412778062   0.625324633164069   1.0000000
B2   B   0.055431617775050   0.111028042911098   0.625513529036837   1.0000000
B2   B   0.555527370472045   0.611093150804428   0.623741404988223   1.0000000
B2   B   0.388807954473475   0.111036613534021   0.625151223432107   1.0000000
B2   B   0.888889887022745   0.611111610178045   0.624287882367587   1.0000000
B2   B   0.055514119912899   0.611099966110310   0.124968593007714   1.0000000
B2   B   0.722133598836459   0.111066252366142   0.624981629424241   1.0000000
B2   B   0.222104273334295   0.111012772382103   0.124379856888763   1.0000000
B2   B   0.388807954473475   0.611104674272791   0.124848776567894   1.0000000
B2   B   0.722222441019324   0.611099294887942   0.126964341433751   1.0000000
B2   B   0.555477702576001   0.111053791174226   0.125144975206842   1.0000000
B2   B   0.388807954473475   0.611104674272791   0.625151223432107   1.0000000
B2   B   0.888781570861951   0.111057452097647   0.124845156902028   1.0000000
B2   B   0.222144739807480   0.777739036570404   0.625138358354586   1.0000000
B2   B   0.055431617775050   0.277736908197289   0.625513529036837   1.0000000
B2   B   0.388851104925680   0.277794149731413   0.624928766524031   1.0000000
B2   B   0.555477702576001   0.777757244735114   0.624855024793158   1.0000000
B2   B   0.888862358375631   0.777758109481843   0.624581892939184   1.0000000
B2   B   0.722192140458855   0.277766204381689   0.624335738484628   1.0000000
B2   B   0.055514119912899   0.777747487135922   0.124968593007714   1.0000000
B2   B   0.388791147271296   0.777749298898365   0.124862634216148   1.0000000
B2   B   0.222074094873521   0.277703714103428   0.124147724644995   1.0000000
B2   B   0.722192140458855   0.777759269410506   0.125664261515371   1.0000000
B2   B   0.555527370472045   0.277767553000943   0.126258595011778   1.0000000
B2   B   0.888814843424352   0.277750866381197   0.124981567943819   1.0000000
B2   B   0.055469216133431   0.444427887188706   0.625273780374286   1.0000000
B2   B   0.222132016289187   0.944366936844451   0.625324633164069   1.0000000
B2   B   0.555451474835654   0.944392404084490   0.625070073316157   1.0000000
B2   B   0.388851104925680   0.444390288527604   0.624928766524031   1.0000000
B2   B   0.888814843424352   0.944397310376500   0.625018432056182   1.0000000
B2   B   0.055469216133431   0.944374662278055   0.124726219625715   1.0000000
B2   B   0.722222441019324   0.444456479464716   0.623035658566248   1.0000000
B2   B   0.388791147271296   0.944375181706257   0.124862634216148   1.0000000
B2   B   0.222104273334295   0.444424834285528   0.124379856888763   1.0000000
B2   B   0.222132016289186   0.611098412778062   0.124675366835932   1.0000000
B2   B   0.555473109688400   0.444403221510861   0.127541653344102   1.0000000
B2   B   0.722133598836459   0.944400679803664   0.125018370575761   1.0000000
B2   B   0.888862358375631   0.444437582227124   0.125418107060814   1.0000000
B2   B   0.055514119912899   0.611099966110310   0.625031406992286   1.0000000
B2   B   0.222104273334295   0.111012772382103   0.625620143111234   1.0000000
B2   B   0.722222441019324   0.611099294887942   0.623035658566248   1.0000000
B2   B   0.555477702576001   0.111053791174226   0.624855024793158   1.0000000
B2   B   0.888781570861951   0.111057452097647   0.625154843097972   1.0000000


