data_1
_audit_creation_method   'vasp2cif'
_cell_length_a    14.93631414619966
_cell_length_b    14.936314146199727
_cell_length_c    13.341276283792837
_cell_angle_alpha    90.0
_cell_angle_beta    90.0
_cell_angle_gamma    119.99999999999984

_symmetry_space_group_name_H-M    'P 1'
loop_
_atom_site_label
_atom_site_type_symbol
_atom_site_fract_x
_atom_site_fract_y
_atom_site_fract_z
_atom_site_occupancy
Sb2   Sb   0.444444444444443   0.388888888888886   0.375000000000000   1.0000000
N2   N   0.111098790677430   0.055535318221205   0.125541519025516   1.0000000
N2   N   0.611123948435909   0.555566588829405   0.124829324149355   1.0000000
N2   N   0.444436527543730   0.055535318221205   0.125541519025516   1.0000000
N2   N   0.944457417426874   0.555564667138737   0.125251835570855   1.0000000
N2   N   0.777777777777779   0.055555555555557   0.125388928638599   1.0000000
N2   N   0.111111111111114   0.722222222222221   0.625031668532999   1.0000000
N2   N   0.444436527543730   0.722234542655987   0.624458480974433   1.0000000
N2   N   0.277766744504041   0.222209384897491   0.625170675850663   1.0000000
N2   N   0.777798015112167   0.722234542655987   0.624458480974433   1.0000000
N2   N   0.611113846818102   0.222219486515183   0.624513176714820   1.0000000
N2   N   0.944444038148376   0.222227043733509   0.624509919550460   1.0000000
N2   N   0.277768666194502   0.722226083621546   0.125251835570855   1.0000000
N2   N   0.111105639696966   0.222219486515183   0.125486823285237   1.0000000
N2   N   0.444442640393376   0.222209384897491   0.124829324149355   1.0000000
N2   N   0.611113846818102   0.722227693636420   0.125486823285237   1.0000000
N2   N   0.944457417426874   0.722226083621546   0.125251835570855   1.0000000
N2   N   0.777783005585219   0.222227043733509   0.125490080449588   1.0000000
N2   N   0.111107249711850   0.888875915906454   0.624748164429147   1.0000000
N2   N   0.444434789982347   0.888884061657890   0.624518760936273   1.0000000
N2   N   0.277766744504041   0.388890692939952   0.625170675850663   1.0000000
N2   N   0.611123948435909   0.388890692939952   0.625170675850663   1.0000000
N2   N   0.777783005585219   0.888889295184953   0.624509919550460   1.0000000
N2   N   0.944449271675438   0.388898543350981   0.624518760936273   1.0000000
N2   N   0.111098790677430   0.388896805789598   0.125541519025516   1.0000000
N2   N   0.277768666194502   0.888875915906454   0.125251835570855   1.0000000
N2   N   0.611106289599681   0.888889295184953   0.125490080449588   1.0000000
N2   N   0.444444444444443   0.388888888888886   0.122513691484686   1.0000000
N2   N   0.944449271675438   0.888884061657890   0.125481239063677   1.0000000
N2   N   0.777798015112167   0.388896805789598   0.125541519025516   1.0000000
N2   N   0.277767681392200   0.555565651941151   0.624572054080067   1.0000000
N2   N   0.111098790677430   0.055535318221205   0.624458480974433   1.0000000
N2   N   0.611123948435909   0.555566588829405   0.625170675850663   1.0000000
N2   N   0.444436527543730   0.055535318221205   0.624458480974433   1.0000000
N2   N   0.944457417426874   0.555564667138737   0.624748164429147   1.0000000
N2   N   0.111107249711850   0.555564667138737   0.125251835570855   1.0000000
N2   N   0.777777777777779   0.055555555555557   0.624611071361392   1.0000000
N2   N   0.277767681392200   0.055535362784416   0.125427945919802   1.0000000
N2   N   0.444442640393376   0.555566588829405   0.124829324149355   1.0000000
N2   N   0.777797970548935   0.555565651941151   0.125427945919802   1.0000000
N2   N   0.611106289599797   0.055550327748081   0.125490080449590   1.0000000
N2   N   0.444442640393376   0.555566588829405   0.625170675850663   1.0000000
N2   N   0.944444038148376   0.055550327748081   0.125490080449588   1.0000000
N2   N   0.277768666194502   0.722226083621546   0.624748164429147   1.0000000
N2   N   0.111105639696966   0.222219486515183   0.624513176714820   1.0000000
N2   N   0.444442640393376   0.222209384897491   0.625170675850663   1.0000000
N2   N   0.611113846818102   0.722227693636420   0.624513176714820   1.0000000
N2   N   0.944457417426874   0.722226083621546   0.624748164429147   1.0000000
N2   N   0.777783005585219   0.222227043733509   0.624509919550460   1.0000000
N2   N   0.111111111111114   0.722222222222221   0.124968331467026   1.0000000
N2   N   0.444436527543730   0.722234542655987   0.125541519025516   1.0000000
N2   N   0.277766744504041   0.222209384897491   0.124829324149355   1.0000000
N2   N   0.777798015112167   0.722234542655987   0.125541519025516   1.0000000
N2   N   0.611113846818102   0.222219486515183   0.125486823285237   1.0000000
N2   N   0.944444038148376   0.222227043733509   0.125490080449588   1.0000000
N2   N   0.111098790677430   0.388896805789598   0.624458480974433   1.0000000
N2   N   0.277768666194502   0.888875915906454   0.624748164429147   1.0000000
N2   N   0.611106289599681   0.888889295184953   0.624509919550460   1.0000000
N2   N   0.444444444444443   0.388888888888886   0.627486308515373   1.0000000
N2   N   0.944449271675438   0.888884061657890   0.624518760936273   1.0000000
N2   N   0.111107249711850   0.888875915906454   0.125251835570855   1.0000000
N2   N   0.777798015112167   0.388896805789598   0.624458480974433   1.0000000
N2   N   0.444434789982347   0.888884061657890   0.125481239063677   1.0000000
N2   N   0.277766744504041   0.388890692939952   0.124829324149355   1.0000000
N2   N   0.277767681392200   0.555565651941151   0.125427945919802   1.0000000
N2   N   0.611123948435909   0.388890692939952   0.124829324149355   1.0000000
N2   N   0.777783005585219   0.888889295184953   0.125490080449588   1.0000000
N2   N   0.944449271675438   0.388898543350981   0.125481239063677   1.0000000
N2   N   0.111107249711850   0.555564667138737   0.624748164429147   1.0000000
N2   N   0.277767681392200   0.055535362784416   0.624572054080067   1.0000000
N2   N   0.777797970548935   0.555565651941151   0.624572054080068   1.0000000
N2   N   0.611106289599660   0.055550327748081   0.624509919550460   1.0000000
N2   N   0.944444038148376   0.055550327748081   0.624509919550460   1.0000000
N2   N   0.054243151523329   0.110267581256912   0.375000000000000   1.0000000
N2   N   0.556008690690723   0.612017381381331   0.375000000000000   1.0000000
N2   N   0.387235928030094   0.102649840205083   0.375000000000000   1.0000000
N2   N   0.891880271774260   0.612606802553601   0.375000000000000   1.0000000
N2   N   0.722469586053305   0.110863747279984   0.375000000000000   1.0000000
N2   N   0.055553094642675   0.777780238690582   0.875000000000000   1.0000000
N2   N   0.388894366965020   0.777779299381050   0.875000000000000   1.0000000
N2   N   0.222222779306718   0.277778056320007   0.875000000000000   1.0000000
N2   N   0.722220849089427   0.777778921910030   0.875000000000000   1.0000000
N2   N   0.555555277013295   0.277778056320007   0.875000000000000   1.0000000
N2   N   0.888887805647964   0.277775611295714   0.875000000000000   1.0000000
N2   N   0.221675117670199   0.777504225501722   0.375000000000000   1.0000000
N2   N   0.054243151523329   0.277308903599746   0.375000000000000   1.0000000
N2   N   0.373997117662539   0.247994235325221   0.375000000000000   1.0000000
N2   N   0.556024429733675   0.779090181809983   0.375000000000000   1.0000000
N2   N   0.891204944658290   0.779670994793414   0.375000000000000   1.0000000
N2   N   0.723065752076431   0.277308903599746   0.375000000000000   1.0000000
N2   N   0.055554033952212   0.944448400917249   0.875000000000000   1.0000000
N2   N   0.388894366965020   0.944448400917249   0.875000000000000   1.0000000
N2   N   0.222221680880892   0.444440959750977   0.875000000000000   1.0000000
N2   N   0.555561523564721   0.444447428449025   0.875000000000000   1.0000000
N2   N   0.722223208128722   0.944446416257305   0.875000000000000   1.0000000
N2   N   0.888884932416079   0.444438966368309   0.875000000000000   1.0000000
N2   N   0.053662338539903   0.444867283198213   0.375000000000000   1.0000000
N2   N   0.220726530779618   0.941453061559068   0.375000000000000   1.0000000
N2   N   0.555978455280526   0.944655894306932   0.375000000000000   1.0000000
N2   N   0.373997117662539   0.459336215670789   0.375000000000000   1.0000000
N2   N   0.888677439026396   0.944655894306932   0.375000000000000   1.0000000
N2   N   0.730683493128369   0.446097405303234   0.375000000000000   1.0000000
N2   N   0.222224836799827   0.611108496533442   0.875000000000000   1.0000000
N2   N   0.055554411423434   0.111112484243997   0.875000000000000   1.0000000
N2   N   0.555555277013295   0.611110554026657   0.875000000000000   1.0000000
N2   N   0.388892373582352   0.111114054463226   0.875000000000000   1.0000000
N2   N   0.888883659733422   0.611108496533442   0.875000000000000   1.0000000
N2   N   0.055829107831578   0.611658215663039   0.375000000000000   1.0000000
N2   N   0.722223208128722   0.111110125204674   0.875000000000000   1.0000000
N2   N   0.215413912174939   0.102649840205083   0.375000000000000   1.0000000
N2   N   0.387235928030094   0.617919421158354   0.375000000000000   1.0000000
N2   N   0.730683493128369   0.617919421158354   0.375000000000000   1.0000000
N2   N   0.556024429733675   0.110267581256912   0.375000000000000   1.0000000
N2   N   0.388892373582352   0.611111652452342   0.875000000000000   1.0000000
N2   N   0.888394161226440   0.110863747279984   0.375000000000000   1.0000000
N2   N   0.222227144048021   0.777780238690582   0.875000000000000   1.0000000
N2   N   0.055554411423434   0.277775260512768   0.875000000000000   1.0000000
N2   N   0.388885904884304   0.277771809768499   0.875000000000000   1.0000000
N2   N   0.555558072820410   0.777778921910030   0.875000000000000   1.0000000
N2   N   0.888884932416079   0.777779299381049   0.875000000000000   1.0000000
N2   N   0.722220849089427   0.277775260512768   0.875000000000000   1.0000000
N2   N   0.055829107831577   0.777504225501722   0.375000000000000   1.0000000
N2   N   0.388466050135116   0.779670994793414   0.375000000000000   1.0000000
N2   N   0.221315951952018   0.277324642642670   0.375000000000000   1.0000000
N2   N   0.723065752076431   0.779090181809983   0.375000000000000   1.0000000
N2   N   0.556008690690723   0.277324642642670   0.375000000000000   1.0000000
N2   N   0.888677439026396   0.277354878052858   0.375000000000000   1.0000000
N2   N   0.055554033952212   0.444438966368309   0.875000000000000   1.0000000
N2   N   0.222224836799827   0.944449673599907   0.875000000000000   1.0000000
N2   N   0.555557722037816   0.944445527685365   0.875000000000000   1.0000000
N2   N   0.388885904884304   0.444447428449025   0.875000000000000   1.0000000
N2   N   0.888887805647964   0.944445527685365   0.875000000000000   1.0000000
N2   N   0.053662338539903   0.942128388675039   0.375000000000000   1.0000000
N2   N   0.722219278870060   0.444440959750977   0.875000000000000   1.0000000
N2   N   0.388466050135116   0.942128388675039   0.375000000000000   1.0000000
N2   N   0.215413912174939   0.446097405303234   0.375000000000000   1.0000000
N2   N   0.220726530779618   0.612606802553601   0.375000000000000   1.0000000
N2   N   0.585339098008250   0.459336215670789   0.375000000000000   1.0000000
N2   N   0.722469586053305   0.944939172106889   0.375000000000000   1.0000000
N2   N   0.891204944658290   0.444867283198213   0.375000000000000   1.0000000
N2   N   0.055553094642675   0.611106189285346   0.875000000000000   1.0000000
N2   N   0.222221680880892   0.111114054463226   0.875000000000000   1.0000000
N2   N   0.722219278870060   0.611111652452342   0.875000000000000   1.0000000
N2   N   0.555558072820410   0.111112484243997   0.875000000000000   1.0000000
N2   N   0.888886917076024   0.111110125204674   0.875000000000000   1.0000000
B2   B   0.106166248613677   0.051126594164439   0.375000000000000   1.0000000
B2   B   0.622900027753599   0.566588082646835   0.375000000000000   1.0000000
B2   B   0.444960345550750   0.051126594164439   0.375000000000000   1.0000000
B2   B   0.945866332217082   0.555930264230861   0.375000000000000   1.0000000
B2   B   0.777777777777779   0.055555555555557   0.375000000000000   1.0000000
B2   B   0.111111111111114   0.722222222222221   0.875000000000000   1.0000000
B2   B   0.444458747008329   0.722263744343154   0.875000000000000   1.0000000
B2   B   0.277730141378440   0.222181182719699   0.875000000000000   1.0000000
B2   B   0.777804997334788   0.722263744343154   0.875000000000000   1.0000000
B2   B   0.611140062247734   0.222193271085632   0.875000000000000   1.0000000
B2   B   0.944418380053764   0.222205263628049   0.875000000000000   1.0000000
B2   B   0.277403069102537   0.723269401319502   0.375000000000000   1.0000000
B2   B   0.108914589112330   0.221123961222806   0.375000000000000   1.0000000
B2   B   0.443688054892995   0.210433305579617   0.375000000000000   1.0000000
B2   B   0.612209372110524   0.724418744220940   0.375000000000000   1.0000000
B2   B   0.945866332217082   0.723269401319502   0.375000000000000   1.0000000
B2   B   0.778034956108558   0.221445301327612   0.375000000000000   1.0000000
B2   B   0.111097575523124   0.888878773099357   0.875000000000000   1.0000000
B2   B   0.444458883601511   0.888896108467369   0.875000000000000   1.0000000
B2   B   0.277730141378440   0.388882291992086   0.875000000000000   1.0000000
B2   B   0.611152150613706   0.388882291992086   0.875000000000000   1.0000000
B2   B   0.777786883574297   0.888914953279564   0.875000000000000   1.0000000
B2   B   0.944437224865959   0.388874449731818   0.875000000000000   1.0000000
B2   B   0.106166248613676   0.388372987782579   0.375000000000000   1.0000000
B2   B   0.277403069102537   0.887467001116246   0.375000000000000   1.0000000
B2   B   0.611888032005676   0.889922988114258   0.375000000000000   1.0000000
B2   B   0.944139684303753   0.889193649029576   0.375000000000000   1.0000000
B2   B   0.782206739168873   0.388372987782579   0.375000000000000   1.0000000
B2   B   0.277760010710588   0.555573322622714   0.875000000000000   1.0000000
B2   B   0.111069588990113   0.055528335998515   0.875000000000000   1.0000000
B2   B   0.611152150613706   0.555603191954804   0.875000000000000   1.0000000
B2   B   0.444458747008329   0.055528335998515   0.875000000000000   1.0000000
B2   B   0.944454560233971   0.555552135757363   0.875000000000000   1.0000000
B2   B   0.110063932013859   0.555930264230861   0.375000000000000   1.0000000
B2   B   0.777777777777779   0.055555555555557   0.875000000000000   1.0000000
B2   B   0.275269424983762   0.050538849967630   0.375000000000000   1.0000000
B2   B   0.443688054892995   0.566588082646835   0.375000000000000   1.0000000
B2   B   0.782794483365812   0.558063908349460   0.375000000000000   1.0000000
B2   B   0.611888032005676   0.055298377224724   0.375000000000000   1.0000000
B2   B   0.444451041341242   0.555603191954804   0.875000000000000   1.0000000
B2   B   0.943410345219071   0.055298377224724   0.375000000000000   1.0000000
B2   B   0.277781197576159   0.722235757810223   0.875000000000000   1.0000000
B2   B   0.111053208837942   0.222193271085632   0.875000000000000   1.0000000
B2   B   0.444451041341242   0.222181182719699   0.875000000000000   1.0000000
B2   B   0.611140062247734   0.722280124495365   0.875000000000000   1.0000000
B2   B   0.944454560233971   0.722235757810223   0.875000000000000   1.0000000
B2   B   0.777786883574297   0.222205263628049   0.875000000000000   1.0000000
B2   B   0.111111111111114   0.722222222222221   0.375000000000000   1.0000000
B2   B   0.444960345550750   0.727167084719706   0.375000000000000   1.0000000
B2   B   0.266745250686568   0.210433305579617   0.375000000000000   1.0000000
B2   B   0.782206739168873   0.727167084719706   0.375000000000000   1.0000000
B2   B   0.612209372110524   0.221123961222809   0.375000000000000   1.0000000
B2   B   0.943410345219071   0.221445301327612   0.375000000000000   1.0000000
B2   B   0.111069588990113   0.388874586324999   0.875000000000000   1.0000000
B2   B   0.277781197576159   0.888878773099357   0.875000000000000   1.0000000
B2   B   0.611128069705198   0.888914953279564   0.875000000000000   1.0000000
B2   B   0.444444444444443   0.388888888888886   0.875000000000000   1.0000000
B2   B   0.944437224865959   0.888896108467369   0.875000000000000   1.0000000
B2   B   0.110063932013859   0.887467001116246   0.375000000000000   1.0000000
B2   B   0.777804997334788   0.388874586324999   0.875000000000000   1.0000000
B2   B   0.445053964725691   0.889193649029576   0.375000000000000   1.0000000
B2   B   0.266745250686568   0.389645278440334   0.375000000000000   1.0000000
B2   B   0.275269424983762   0.558063908349460   0.375000000000000   1.0000000
B2   B   0.622900027753599   0.389645278440334   0.375000000000000   1.0000000
B2   B   0.778034956108558   0.889922988114258   0.375000000000000   1.0000000
B2   B   0.944139684303753   0.388279368607638   0.375000000000000   1.0000000
B2   B   0.111097575523124   0.555552135757363   0.875000000000000   1.0000000
B2   B   0.277760010710588   0.055520021421313   0.875000000000000   1.0000000
B2   B   0.777813311912160   0.555573322622714   0.875000000000000   1.0000000
B2   B   0.611128069705198   0.055546449759119   0.875000000000000   1.0000000
B2   B   0.944418380053764   0.055546449759119   0.875000000000000   1.0000000
B2   B   0.055463105396856   0.111028326011717   0.125276865567691   1.0000000
B2   B   0.555644915392139   0.611289830784460   0.124525822865378   1.0000000
B2   B   0.388817027283699   0.110902786686261   0.124989219473753   1.0000000
B2   B   0.889013559976665   0.611173446655054   0.125076343555498   1.0000000
B2   B   0.722235582286555   0.111097751047004   0.125276066151511   1.0000000
B2   B   0.055570403501693   0.777762929831505   0.625078704608901   1.0000000
B2   B   0.388851153770896   0.777820251177439   0.624772298603196   1.0000000
B2   B   0.222043502548846   0.277688417941106   0.625474177134448   1.0000000
B2   B   0.722305007321470   0.777870227936352   0.624723134432362   1.0000000
B2   B   0.555644915392139   0.277688417941106   0.625474177134448   1.0000000
B2   B   0.888891316193586   0.277782632387114   0.624679999196253   1.0000000
B2   B   0.222192526329966   0.777762929831505   0.124921295391135   1.0000000
B2   B   0.055463105396856   0.277768112718413   0.125276865567691   1.0000000
B2   B   0.388742698238820   0.277485396477621   0.123002001050588   1.0000000
B2   B   0.555565220614727   0.777870227936352   0.125276865567691   1.0000000
B2   B   0.888969097406524   0.777820251177439   0.125227701396790   1.0000000
B2   B   0.722305007321470   0.277768112718413   0.125276865567691   1.0000000
B2   B   0.055513082155770   0.944364235926805   0.624772298603196   1.0000000
B2   B   0.388851153770896   0.944364235926805   0.624772298603196   1.0000000
B2   B   0.222085759402529   0.444516306049630   0.625010780526204   1.0000000
B2   B   0.555847936855689   0.444590635094509   0.626997998949434   1.0000000
B2   B   0.722235582286555   0.944471164572687   0.624723933848531   1.0000000
B2   B   0.888969097406524   0.444482179562432   0.624772298603196   1.0000000
B2   B   0.055513082155770   0.444482179562432   0.125227701396790   1.0000000
B2   B   0.222159886678343   0.944319773356664   0.125076343555498   1.0000000
B2   B   0.555550700946116   0.944442017139742   0.125320000803779   1.0000000
B2   B   0.388742698238820   0.444590635094509   0.123002001050586   1.0000000
B2   B   0.888891316193586   0.944442017139742   0.125320000803778   1.0000000
B2   B   0.722430546647095   0.444516306049630   0.124989219473753   1.0000000
B2   B   0.222159886678343   0.611173446655054   0.624923656444510   1.0000000
B2   B   0.055463105396856   0.111028326011717   0.624723134432362   1.0000000
B2   B   0.555644915392139   0.611289830784460   0.625474177134448   1.0000000
B2   B   0.388817027283699   0.110902786686261   0.625010780526204   1.0000000
B2   B   0.889013559976665   0.611173446655054   0.624923656444510   1.0000000
B2   B   0.055570403501693   0.611140807003395   0.124921295391135   1.0000000
B2   B   0.722235582286555   0.111097751047004   0.624723933848531   1.0000000
B2   B   0.222085759402529   0.110902786686261   0.124989219473753   1.0000000
B2   B   0.388817027283699   0.611247573930759   0.124989219473753   1.0000000
B2   B   0.722430546647095   0.611247573930737   0.124989219473753   1.0000000
B2   B   0.555565220614727   0.111028326011717   0.125276865567691   1.0000000
B2   B   0.388817027283699   0.611247573930759   0.625010780526204   1.0000000
B2   B   0.888862168760641   0.111097751047004   0.125276066151511   1.0000000
B2   B   0.222192526329966   0.777762929831505   0.625078704608901   1.0000000
B2   B   0.055463105396856   0.277768112718413   0.624723134432362   1.0000000
B2   B   0.388742698238820   0.277485396477621   0.626997998949434   1.0000000
B2   B   0.555565220614727   0.777870227936352   0.624723134432362   1.0000000
B2   B   0.888969097406524   0.777820251177439   0.624772298603196   1.0000000
B2   B   0.722305007321470   0.277768112718413   0.624723134432362   1.0000000
B2   B   0.055570403501693   0.777762929831505   0.124921295391135   1.0000000
B2   B   0.388851153770896   0.777820251177439   0.125227701396790   1.0000000
B2   B   0.222043502548846   0.277688417941106   0.124525822865375   1.0000000
B2   B   0.722305007321470   0.777870227936352   0.125276865567691   1.0000000
B2   B   0.555644915392139   0.277688417941106   0.124525822865377   1.0000000
B2   B   0.888891316193586   0.277782632387114   0.125320000803794   1.0000000
B2   B   0.055513082155770   0.444482179562432   0.624772298603196   1.0000000
B2   B   0.222159886678343   0.944319773356664   0.624923656444510   1.0000000
B2   B   0.555550700946116   0.944442017139742   0.624679999196253   1.0000000
B2   B   0.388742698238820   0.444590635094509   0.626997998949437   1.0000000
B2   B   0.888891316193586   0.944442017139742   0.624679999196253   1.0000000
B2   B   0.055513082155770   0.944364235926805   0.125227701396790   1.0000000
B2   B   0.722430546647095   0.444516306049630   0.625010780526204   1.0000000
B2   B   0.388851153770896   0.944364235926805   0.125227701396790   1.0000000
B2   B   0.222085759402529   0.444516306049630   0.124989219473753   1.0000000
B2   B   0.222159886678343   0.611173446655054   0.125076343555498   1.0000000
B2   B   0.555847936855689   0.444590635094509   0.123002001050586   1.0000000
B2   B   0.722235582286555   0.944471164572687   0.125276066151511   1.0000000
B2   B   0.888969097406524   0.444482179562432   0.125227701396790   1.0000000
B2   B   0.055570403501693   0.611140807003395   0.625078704608901   1.0000000
B2   B   0.222085759402529   0.110902786686261   0.625010780526204   1.0000000
B2   B   0.722430546647095   0.611247573930737   0.625010780526204   1.0000000
B2   B   0.555565220614727   0.111028326011717   0.624723134432362   1.0000000
B2   B   0.888862168760641   0.111097751047004   0.624723933848531   1.0000000


