data_1
_audit_creation_method   'vasp2cif'
_cell_length_a    14.93631414619966
_cell_length_b    14.936314146199727
_cell_length_c    13.341276283792837
_cell_angle_alpha    90.0
_cell_angle_beta    90.0
_cell_angle_gamma    119.99999999999984

_symmetry_space_group_name_H-M    'P 1'
loop_
_atom_site_label
_atom_site_type_symbol
_atom_site_fract_x
_atom_site_fract_y
_atom_site_fract_z
_atom_site_occupancy
C2   C   0.717224881383188   0.441645432660048   0.375000000000000   1.0000000
C2   C   0.608633773303858   0.387992281207380   0.375000000000000   1.0000000
C2   C   0.444182066559068   0.387887459805419   0.375000000000000   1.0000000
C2   C   0.551963145269693   0.439380628210342   0.375000000000000   1.0000000
N2   N   0.111097413522388   0.055558240745898   0.124924489364816   1.0000000
N2   N   0.611099541681539   0.555562380419155   0.124592351357017   1.0000000
N2   N   0.444458175011925   0.055578930319189   0.124927922049355   1.0000000
N2   N   0.944422814050236   0.555539143641689   0.124837263505678   1.0000000
N2   N   0.777795990689372   0.055546468831420   0.124890892925525   1.0000000
N2   N   0.111092457764628   0.722213825016802   0.625111659001490   1.0000000
N2   N   0.444449847861315   0.722210576455998   0.625074248759979   1.0000000
N2   N   0.277731925766985   0.222211826012404   0.625079679765469   1.0000000
N2   N   0.777783671686954   0.722234190067900   0.625136853923436   1.0000000
N2   N   0.611150563626341   0.222220412559887   0.625129916757509   1.0000000
N2   N   0.944451015728404   0.222195152045420   0.625106218384780   1.0000000
N2   N   0.277769744269193   0.722211843001117   0.124911867370609   1.0000000
N2   N   0.111069444881912   0.222190888606151   0.124881415699161   1.0000000
N2   N   0.444446594208547   0.222234439528647   0.125007319576969   1.0000000
N2   N   0.611126144261031   0.722232502946774   0.124867914925421   1.0000000
N2   N   0.944439497272218   0.722236335464788   0.124851797551023   1.0000000
N2   N   0.777822095806465   0.222195618305728   0.124829552998906   1.0000000
N2   N   0.111107627491662   0.888902723247046   0.625088591381446   1.0000000
N2   N   0.444449109108609   0.888897737295775   0.625082198358108   1.0000000
N2   N   0.277750940757504   0.388847274517243   0.625050519108150   1.0000000
N2   N   0.611089119578109   0.388835407112871   0.625670047973335   1.0000000
N2   N   0.777794338015630   0.888899953678087   0.625089146833242   1.0000000
N2   N   0.944453108275047   0.388860999013851   0.625135171731824   1.0000000
N2   N   0.111102978480923   0.388864056313027   0.124924611895938   1.0000000
N2   N   0.277775937603334   0.888899408898772   0.124917850893738   1.0000000
N2   N   0.611121708160817   0.888900300462272   0.124908675159859   1.0000000
N2   N   0.444390843622322   0.388843255634896   0.124527444953450   1.0000000
N2   N   0.944454154659319   0.888907456703239   0.124897225699637   1.0000000
N2   N   0.777818552967965   0.388823454855040   0.124352752300143   1.0000000
N2   N   0.277773084062249   0.555531606645284   0.625084788068798   1.0000000
N2   N   0.111097413522388   0.055558240745898   0.625075510635184   1.0000000
N2   N   0.611099541681539   0.555562380419155   0.625407648642983   1.0000000
N2   N   0.444458175011925   0.055578930319189   0.625072077950645   1.0000000
N2   N   0.944422814050236   0.555539143641689   0.625162736494322   1.0000000
N2   N   0.111091585913812   0.555535221773254   0.124898543568960   1.0000000
N2   N   0.777795990689372   0.055546468831420   0.625109107074475   1.0000000
N2   N   0.277776779342605   0.055575220446013   0.124931254330652   1.0000000
N2   N   0.444451378874618   0.555532712638942   0.124921162411843   1.0000000
N2   N   0.777787503314554   0.555603549604160   0.124330455236795   1.0000000
N2   N   0.611130708434997   0.055562982319001   0.124910925569504   1.0000000
N2   N   0.444451378874618   0.555532712638942   0.625078837588157   1.0000000
N2   N   0.944440965991025   0.055542523600662   0.124896237180817   1.0000000
N2   N   0.277769744269193   0.722211843001117   0.625088132629391   1.0000000
N2   N   0.111069444881912   0.222190888606151   0.625118584300839   1.0000000
N2   N   0.444446594208547   0.222234439528647   0.624992680423031   1.0000000
N2   N   0.611126144261031   0.722232502946774   0.625132085074579   1.0000000
N2   N   0.944439497272218   0.722236335464788   0.625148202448977   1.0000000
N2   N   0.777822095806465   0.222195618305728   0.625170447001094   1.0000000
N2   N   0.111092457764628   0.722213825016802   0.124888340998510   1.0000000
N2   N   0.444449847861315   0.722210576455998   0.124925751240021   1.0000000
N2   N   0.277731925766985   0.222211826012404   0.124920320234530   1.0000000
N2   N   0.777783671686954   0.722234190067900   0.124863146076564   1.0000000
N2   N   0.611150563626341   0.222220412559887   0.124870083242491   1.0000000
N2   N   0.944451015728404   0.222195152045420   0.124893781615220   1.0000000
N2   N   0.111102978480923   0.388864056313027   0.625075388104062   1.0000000
N2   N   0.277775937603334   0.888899408898772   0.625082149106262   1.0000000
N2   N   0.611121708160817   0.888900300462272   0.625091324840141   1.0000000
N2   N   0.444390843622322   0.388843255634896   0.625472555046550   1.0000000
N2   N   0.944454154659319   0.888907456703239   0.625102774300363   1.0000000
N2   N   0.111107627491662   0.888902723247046   0.124911408618554   1.0000000
N2   N   0.777818552967965   0.388823454855040   0.625647247699857   1.0000000
N2   N   0.444449109108609   0.888897737295775   0.124917801641892   1.0000000
N2   N   0.277750940757504   0.388847274517243   0.124949480891850   1.0000000
N2   N   0.277773084062249   0.555531606645284   0.124915211931203   1.0000000
N2   N   0.611089119578109   0.388835407112871   0.124329952026665   1.0000000
N2   N   0.777794338015630   0.888899953678087   0.124910853166758   1.0000000
N2   N   0.944453108275047   0.388860999013851   0.124864828268176   1.0000000
N2   N   0.111091585913812   0.555535221773254   0.625101456431040   1.0000000
N2   N   0.277776779342605   0.055575220446013   0.625068745669348   1.0000000
N2   N   0.777787503314554   0.555603549604160   0.625669544763205   1.0000000
N2   N   0.611130708434997   0.055562982319001   0.625089074430496   1.0000000
N2   N   0.944440965991025   0.055542523600662   0.625103762819183   1.0000000
N2   N   0.055655428818714   0.111156450477343   0.375000000000000   1.0000000
N2   N   0.555602693369514   0.611950448382618   0.375000000000000   1.0000000
N2   N   0.389164101093428   0.112271424884861   0.375000000000000   1.0000000
N2   N   0.889570821175604   0.612036517027695   0.375000000000000   1.0000000
N2   N   0.722046300039531   0.110219332630162   0.375000000000000   1.0000000
N2   N   0.055559685104483   0.777779337773155   0.875000000000000   1.0000000
N2   N   0.388887405471526   0.777782657300129   0.875000000000000   1.0000000
N2   N   0.222220504261968   0.277781429810946   0.875000000000000   1.0000000
N2   N   0.722217240837630   0.777777841002914   0.875000000000000   1.0000000
N2   N   0.555550145572178   0.277771911129728   0.875000000000000   1.0000000
N2   N   0.888888937288862   0.277784427174508   0.875000000000000   1.0000000
N2   N   0.222545476982667   0.777982749095591   0.375000000000000   1.0000000
N2   N   0.055799628293369   0.277837769088181   0.375000000000000   1.0000000
N2   N   0.388109847159206   0.279092639142108   0.375000000000000   1.0000000
N2   N   0.555320109255020   0.778066555247528   0.375000000000000   1.0000000
N2   N   0.889565304508052   0.778722378882464   0.375000000000000   1.0000000
N2   N   0.722317919290868   0.275459274190321   0.375000000000000   1.0000000
N2   N   0.055555426019290   0.944444390188852   0.875000000000000   1.0000000
N2   N   0.388887699857613   0.944441591386719   0.875000000000000   1.0000000
N2   N   0.222225203841933   0.444452697834946   0.875000000000000   1.0000000
N2   N   0.555553047300552   0.444451704349818   0.875000000000000   1.0000000
N2   N   0.722215150266360   0.944441595847424   0.875000000000000   1.0000000
N2   N   0.888895903089445   0.444453059709278   0.875000000000000   1.0000000
N2   N   0.056343090867986   0.444530747306394   0.375000000000000   1.0000000
N2   N   0.222691911840131   0.944914729814167   0.375000000000000   1.0000000
N2   N   0.555313986620617   0.944542210257185   0.375000000000000   1.0000000
N2   N   0.389598785528356   0.442248494358701   0.375000000000000   1.0000000
N2   N   0.889081643583715   0.944750822192336   0.375000000000000   1.0000000
N2   N   0.222223629162916   0.611116463953314   0.875000000000000   1.0000000
N2   N   0.055553104429322   0.111108242606126   0.875000000000000   1.0000000
N2   N   0.555547919768470   0.611118535438826   0.875000000000000   1.0000000
N2   N   0.388887346912973   0.111105088721037   0.875000000000000   1.0000000
N2   N   0.888897423824151   0.611114134171895   0.875000000000000   1.0000000
N2   N   0.055878968431853   0.611268784646914   0.375000000000000   1.0000000
N2   N   0.722214186097123   0.111106498083590   0.875000000000000   1.0000000
N2   N   0.222586652559050   0.111446365852549   0.375000000000000   1.0000000
N2   N   0.388930291786795   0.610162311269056   0.375000000000000   1.0000000
N2   N   0.722791250842334   0.613905018113778   0.375000000000000   1.0000000
N2   N   0.555302552259354   0.111345614972024   0.375000000000000   1.0000000
N2   N   0.388887304187554   0.611118226661012   0.875000000000000   1.0000000
N2   N   0.889001748559691   0.111053108702205   0.375000000000000   1.0000000
N2   N   0.222225763481300   0.777780217320281   0.875000000000000   1.0000000
N2   N   0.055555086501837   0.277783818674872   0.875000000000000   1.0000000
N2   N   0.388888721449227   0.277779381596921   0.875000000000000   1.0000000
N2   N   0.555547873251255   0.777780515667103   0.875000000000000   1.0000000
N2   N   0.888889492866134   0.777778752914710   0.875000000000000   1.0000000
N2   N   0.722216944237317   0.277773938397849   0.875000000000000   1.0000000
N2   N   0.056226702727278   0.778317117162559   0.375000000000000   1.0000000
N2   N   0.388921200261030   0.777596596292254   0.375000000000000   1.0000000
N2   N   0.221766739513285   0.277528985172020   0.375000000000000   1.0000000
N2   N   0.722225255748490   0.778801312130686   0.375000000000000   1.0000000
N2   N   0.555523113765882   0.278437633618854   0.375000000000000   1.0000000
N2   N   0.889259279543826   0.277518541029532   0.375000000000000   1.0000000
N2   N   0.055558215500139   0.444452184806051   0.875000000000000   1.0000000
N2   N   0.222223172900644   0.944442393598995   0.875000000000000   1.0000000
N2   N   0.555547244210274   0.944442006890096   0.875000000000000   1.0000000
N2   N   0.388890141231040   0.444453789292051   0.875000000000000   1.0000000
N2   N   0.888887735702548   0.944443021732580   0.875000000000000   1.0000000
N2   N   0.056084767177197   0.944919114054760   0.375000000000000   1.0000000
N2   N   0.722221008339186   0.444446195582724   0.875000000000000   1.0000000
N2   N   0.388989828807648   0.944806711867506   0.375000000000000   1.0000000
N2   N   0.223155859778341   0.444481630113054   0.375000000000000   1.0000000
N2   N   0.222567247867310   0.611174688083973   0.375000000000000   1.0000000
N2   N   0.722056088867907   0.944472425890917   0.375000000000000   1.0000000
N2   N   0.889607195005539   0.444168812809966   0.375000000000000   1.0000000
N2   N   0.055563478488831   0.611115720212360   0.875000000000000   1.0000000
N2   N   0.222221109088957   0.111108952492186   0.875000000000000   1.0000000
N2   N   0.722216802415962   0.611115015869560   0.875000000000000   1.0000000
N2   N   0.555546909799521   0.111100951735763   0.875000000000000   1.0000000
N2   N   0.888886709340769   0.111110143728143   0.875000000000000   1.0000000
B2   B   0.111521065671258   0.055898415827421   0.375000000000000   1.0000000
B2   B   0.612004899367368   0.556519383433378   0.375000000000000   1.0000000
B2   B   0.444595486494936   0.056276251284028   0.375000000000000   1.0000000
B2   B   0.943758198922819   0.555245949255911   0.375000000000000   1.0000000
B2   B   0.777744523714427   0.055347749066180   0.375000000000000   1.0000000
B2   B   0.111083151220416   0.722198508229314   0.875000000000000   1.0000000
B2   B   0.444446735017573   0.722210231076442   0.875000000000000   1.0000000
B2   B   0.277829365968649   0.222258176314398   0.875000000000000   1.0000000
B2   B   0.777744620782749   0.722153894862959   0.875000000000000   1.0000000
B2   B   0.611124214303768   0.222275772902702   0.875000000000000   1.0000000
B2   B   0.944430111049222   0.222246809556029   0.875000000000000   1.0000000
B2   B   0.277874393491490   0.722197985740991   0.375000000000000   1.0000000
B2   B   0.111174625541160   0.222281648166400   0.375000000000000   1.0000000
B2   B   0.444721576194418   0.223887745264341   0.375000000000000   1.0000000
B2   B   0.610954574911328   0.722475189170161   0.375000000000000   1.0000000
B2   B   0.944620599019849   0.722126848643850   0.375000000000000   1.0000000
B2   B   0.777727606251304   0.221350034427271   0.375000000000000   1.0000000
B2   B   0.111098182708612   0.888866510013509   0.875000000000000   1.0000000
B2   B   0.444445105392362   0.888894273749292   0.875000000000000   1.0000000
B2   B   0.277820931954300   0.388911859824405   0.875000000000000   1.0000000
B2   B   0.611141897079250   0.388926924892383   0.875000000000000   1.0000000
B2   B   0.777757941475088   0.888853246975924   0.875000000000000   1.0000000
B2   B   0.944409629998840   0.388914333009333   0.875000000000000   1.0000000
B2   B   0.111829718957307   0.389064513300569   0.375000000000000   1.0000000
B2   B   0.277968116425329   0.889082952792482   0.375000000000000   1.0000000
B2   B   0.610892495014290   0.888999328398117   0.375000000000000   1.0000000
B2   B   0.944798271834461   0.889198145367593   0.375000000000000   1.0000000
B2   B   0.776855880066117   0.387425757942118   0.375000000000000   1.0000000
B2   B   0.277788573817420   0.555559892927186   0.875000000000000   1.0000000
B2   B   0.111120702541109   0.055555302432193   0.875000000000000   1.0000000
B2   B   0.611116468058012   0.555522375004557   0.875000000000000   1.0000000
B2   B   0.444463732300404   0.055585950177026   0.875000000000000   1.0000000
B2   B   0.944398313070090   0.555537529830324   0.875000000000000   1.0000000
B2   B   0.111238963405354   0.555660922661424   0.375000000000000   1.0000000
B2   B   0.777762434189012   0.055562662645397   0.875000000000000   1.0000000
B2   B   0.278172654752526   0.056094391156636   0.375000000000000   1.0000000
B2   B   0.445032638253074   0.554309403130590   0.375000000000000   1.0000000
B2   B   0.776619027221608   0.556108627952299   0.375000000000000   1.0000000
B2   B   0.610953067852937   0.055833188681231   0.375000000000000   1.0000000
B2   B   0.444472091340012   0.555547442063131   0.875000000000000   1.0000000
B2   B   0.944588533832808   0.055675446832314   0.375000000000000   1.0000000
B2   B   0.277770075982519   0.722215702104888   0.875000000000000   1.0000000
B2   B   0.111126853439874   0.222241318534685   0.875000000000000   1.0000000
B2   B   0.444497462533595   0.222275505438798   0.875000000000000   1.0000000
B2   B   0.611101514742284   0.722179905212650   0.875000000000000   1.0000000
B2   B   0.944401568212894   0.722164392735198   0.875000000000000   1.0000000
B2   B   0.777756306751354   0.222263844141281   0.875000000000000   1.0000000
B2   B   0.111186885505545   0.722178388383873   0.375000000000000   1.0000000
B2   B   0.444313815090518   0.721557594690564   0.375000000000000   1.0000000
B2   B   0.277831179674143   0.222655037903501   0.375000000000000   1.0000000
B2   B   0.778120009327833   0.723452541543802   0.375000000000000   1.0000000
B2   B   0.611764072993205   0.223176550276964   0.375000000000000   1.0000000
B2   B   0.944606042620262   0.222336101751807   0.375000000000000   1.0000000
B2   B   0.111110989230185   0.388908988141840   0.875000000000000   1.0000000
B2   B   0.277778377143209   0.888888000871347   0.875000000000000   1.0000000
B2   B   0.611099995300636   0.888877495230105   0.875000000000000   1.0000000
B2   B   0.444511488503648   0.388922865006482   0.875000000000000   1.0000000
B2   B   0.944421442774079   0.888846513429803   0.875000000000000   1.0000000
B2   B   0.111479304306029   0.889135498502061   0.375000000000000   1.0000000
B2   B   0.777745212975694   0.388921436670121   0.875000000000000   1.0000000
B2   B   0.444354993128298   0.888901840436948   0.375000000000000   1.0000000
B2   B   0.278693441148868   0.388623828158942   0.375000000000000   1.0000000
B2   B   0.278099717985526   0.555466272956751   0.375000000000000   1.0000000
B2   B   0.777796697897607   0.889234407017422   0.375000000000000   1.0000000
B2   B   0.944726211568959   0.389152104067765   0.375000000000000   1.0000000
B2   B   0.111087985944187   0.555555042258029   0.875000000000000   1.0000000
B2   B   0.277802489451997   0.055574471932747   0.875000000000000   1.0000000
B2   B   0.777740283581905   0.555510122395299   0.875000000000000   1.0000000
B2   B   0.611108251143161   0.055580914162062   0.875000000000000   1.0000000
B2   B   0.944435407132025   0.055548561879996   0.875000000000000   1.0000000
B2   B   0.055547129048850   0.111117681330468   0.125063722764510   1.0000000
B2   B   0.555646483714187   0.610957464204042   0.125155921728905   1.0000000
B2   B   0.388987886016994   0.111284360577129   0.125140425713437   1.0000000
B2   B   0.888635385738361   0.610940092045939   0.125235283183144   1.0000000
B2   B   0.722280936681719   0.111211982940994   0.125102638756219   1.0000000
B2   B   0.055426597969047   0.777697050198802   0.624880921264485   1.0000000
B2   B   0.388899047378722   0.777753795550084   0.624933531548343   1.0000000
B2   B   0.222246393454562   0.277780643161798   0.624897502245159   1.0000000
B2   B   0.722232581315432   0.777679268702275   0.624873856511223   1.0000000
B2   B   0.555742342854918   0.278045857922039   0.624735138862239   1.0000000
B2   B   0.888857651235149   0.277803272032993   0.624865397545461   1.0000000
B2   B   0.222148024098097   0.777739358407273   0.125071891709852   1.0000000
B2   B   0.055529509872716   0.277758108096571   0.125080502330415   1.0000000
B2   B   0.389016922139502   0.277931076281865   0.125230310871907   1.0000000
B2   B   0.555611731414545   0.777725331576620   0.125083319785789   1.0000000
B2   B   0.888806574807980   0.777667158466750   0.125149154230320   1.0000000
B2   B   0.722300260923502   0.277959235267570   0.125179476813722   1.0000000
B2   B   0.055519717542464   0.944427848197578   0.624923353596784   1.0000000
B2   B   0.388924172678116   0.944522575744682   0.624938807219503   1.0000000
B2   B   0.222231479549475   0.444386462391692   0.624875235085335   1.0000000
B2   B   0.555653587737726   0.444351935586120   0.624217125780642   1.0000000
B2   B   0.722255369129452   0.944447190004490   0.624930717385220   1.0000000
B2   B   0.888685797880979   0.444371020557626   0.624774417126878   1.0000000
B2   B   0.055453801747017   0.444390642356771   0.125128940345414   1.0000000
B2   B   0.222210393377300   0.944480841362144   0.125063699037058   1.0000000
B2   B   0.555610398523212   0.944507401404095   0.125066398975438   1.0000000
B2   B   0.389012275353313   0.444358447162963   0.125212845441374   1.0000000
B2   B   0.888881920366717   0.944413366730267   0.125076907578844   1.0000000
B2   B   0.722155444704584   0.444401161938074   0.126256330365410   1.0000000
B2   B   0.222161271368199   0.611039193816579   0.624921728167161   1.0000000
B2   B   0.055547129048850   0.111117681330468   0.624936277235490   1.0000000
B2   B   0.555646483714187   0.610957464204042   0.624844078271095   1.0000000
B2   B   0.388987886016994   0.111284360577129   0.624859574286563   1.0000000
B2   B   0.888635385738361   0.610940092045939   0.624764716816856   1.0000000
B2   B   0.055356885688379   0.611002311317939   0.125158833751174   1.0000000
B2   B   0.722280936681719   0.111211982940994   0.624897361243781   1.0000000
B2   B   0.222254391001345   0.111185950520321   0.125100586760921   1.0000000
B2   B   0.388944037113996   0.611014757037017   0.125133226266276   1.0000000
B2   B   0.722170292760103   0.610902720886686   0.125211615731910   1.0000000
B2   B   0.555674466245880   0.111309125949775   0.125143954113665   1.0000000
B2   B   0.388944037113996   0.611014757037017   0.624866773733724   1.0000000
B2   B   0.888897212774017   0.111128305984841   0.125072244078526   1.0000000
B2   B   0.222148024098097   0.777739358407273   0.624928108290148   1.0000000
B2   B   0.055529509872716   0.277758108096571   0.624919497669585   1.0000000
B2   B   0.389016922139502   0.277931076281865   0.624769689128093   1.0000000
B2   B   0.555611731414545   0.777725331576620   0.624916680214211   1.0000000
B2   B   0.888806574807980   0.777667158466750   0.624850845769681   1.0000000
B2   B   0.722300260923502   0.277959235267570   0.624820523186278   1.0000000
B2   B   0.055426597969047   0.777697050198802   0.125119078735515   1.0000000
B2   B   0.388899047378722   0.777753795550084   0.125066468451657   1.0000000
B2   B   0.222246393454562   0.277780643161798   0.125102497754841   1.0000000
B2   B   0.722232581315432   0.777679268702275   0.125126143488777   1.0000000
B2   B   0.555742342854918   0.278045857922039   0.125264861137761   1.0000000
B2   B   0.888857651235149   0.277803272032993   0.125134602454539   1.0000000
B2   B   0.055453801747017   0.444390642356771   0.624871059654586   1.0000000
B2   B   0.222210393377300   0.944480841362144   0.624936300962942   1.0000000
B2   B   0.555610398523212   0.944507401404095   0.624933601024562   1.0000000
B2   B   0.389012275353313   0.444358447162963   0.624787154558626   1.0000000
B2   B   0.888881920366717   0.944413366730267   0.624923092421156   1.0000000
B2   B   0.055519717542464   0.944427848197578   0.125076646403216   1.0000000
B2   B   0.722155444704584   0.444401161938074   0.623743669634589   1.0000000
B2   B   0.388924172678116   0.944522575744682   0.125061192780497   1.0000000
B2   B   0.222231479549475   0.444386462391692   0.125124764914666   1.0000000
B2   B   0.222161271368199   0.611039193816579   0.125078271832839   1.0000000
B2   B   0.555653587737726   0.444351935586120   0.125782874219358   1.0000000
B2   B   0.722255369129452   0.944447190004490   0.125069282614780   1.0000000
B2   B   0.888685797880979   0.444371020557626   0.125225582873122   1.0000000
B2   B   0.055356885688379   0.611002311317939   0.624841166248826   1.0000000
B2   B   0.222254391001345   0.111185950520321   0.624899413239080   1.0000000
B2   B   0.722170292760103   0.610902720886686   0.624788384268091   1.0000000
B2   B   0.555674466245880   0.111309125949775   0.624856045886335   1.0000000
B2   B   0.888897212774017   0.111128305984841   0.624927755921474   1.0000000


