data_1
_audit_creation_method   'vasp2cif'
_cell_length_a    17.52789999999977
_cell_length_b    17.52789999999977
_cell_length_c    15.0
_cell_angle_alpha    90.0
_cell_angle_beta    90.0
_cell_angle_gamma    119.99999999999916

_symmetry_space_group_name_H-M    'P 1'
loop_
_atom_site_label
_atom_site_type_symbol
_atom_site_fract_x
_atom_site_fract_y
_atom_site_fract_z
_atom_site_occupancy
B2   B   0.904539706789001   0.952753653065956   0.111001204977815   1.0000000
B2   B   0.904787325152239   0.095496937370664   0.111029808911736   1.0000000
B2   B   0.905101772437041   0.238043685434431   0.111058252466866   1.0000000
B2   B   0.905677663185808   0.380616672012310   0.110904681395942   1.0000000
B2   B   0.906285615679166   0.523262397608602   0.111048546932057   1.0000000
B2   B   0.903004538909208   0.665287961836725   0.111021273324953   1.0000000
B2   B   0.903108259007737   0.808680085288784   0.111024290423578   1.0000000
B2   B   0.046467614040783   0.952303485448723   0.111017930266021   1.0000000
B2   B   0.047097849266966   0.095285440898286   0.110982595552415   1.0000000
B2   B   0.047458640304876   0.238174991488162   0.110984252720897   1.0000000
B2   B   0.047737422248021   0.381205180363169   0.110996775255110   1.0000000
B2   B   0.047895395186831   0.524240860283874   0.110980330433570   1.0000000
B2   B   0.046774946972031   0.666890791314257   0.110990086312501   1.0000000
B2   B   0.045980090326976   0.809288781365652   0.110990754284428   1.0000000
B2   B   0.189228106824896   0.952585374303099   0.110992952856584   1.0000000
B2   B   0.189825863508083   0.095410523052610   0.111024168410029   1.0000000
B2   B   0.189619122005373   0.237504200968425   0.110947656045484   1.0000000
B2   B   0.189702435433905   0.380935100890127   0.110954115500827   1.0000000
B2   B   0.189434364784360   0.524616922987676   0.111057920606444   1.0000000
B2   B   0.189584032160460   0.667518673348161   0.111121431430230   1.0000000
B2   B   0.189187388234499   0.810046766194089   0.111012984638609   1.0000000
B2   B   0.332212119749246   0.952819920306554   0.111024066798341   1.0000000
B2   B   0.332709501763852   0.095455862059198   0.111081794545736   1.0000000
B2   B   0.333602080115962   0.238295411571503   0.111047753840062   1.0000000
B2   B   0.331283797811097   0.378305516744083   0.110921497909063   1.0000000
B2   B   0.330237514452477   0.524791559476931   0.110978172981955   1.0000000
B2   B   0.332209690752046   0.667991848664816   0.111147457701607   1.0000000
B2   B   0.332169746751230   0.810448412512366   0.111090866515458   1.0000000
B2   B   0.475295053429874   0.953032134400106   0.111012366659313   1.0000000
B2   B   0.475590978631340   0.094753755448352   0.111016543928603   1.0000000
B2   B   0.476907770972541   0.237084638229985   0.111110405557389   1.0000000
B2   B   0.480319943380284   0.379449920913086   0.111327533249445   1.0000000
B2   B   0.475344134448833   0.671324709484337   0.110988293934399   1.0000000
B2   B   0.475382009126971   0.811671841589354   0.111033524211656   1.0000000
B2   B   0.618758691078265   0.953347127708642   0.111012010321494   1.0000000
B2   B   0.618773664034686   0.094514073927056   0.111006566723688   1.0000000
B2   B   0.619542418538066   0.235598370617181   0.111003107678032   1.0000000
B2   B   0.623595088485963   0.379494821251141   0.110965584523649   1.0000000
B2   B   0.622043324006075   0.672090044555517   0.111015121426333   1.0000000
B2   B   0.619409051872512   0.812330855539419   0.110992958540148   1.0000000
B2   B   0.762115178352627   0.953124605246948   0.111003708918171   1.0000000
B2   B   0.762012663773192   0.095232725028128   0.111073435495038   1.0000000
B2   B   0.762453932360928   0.237164711971377   0.110919099878865   1.0000000
B2   B   0.763480722966576   0.379184909398209   0.111027866230077   1.0000000
B2   B   0.761700899946237   0.519021451806680   0.111015781077948   1.0000000
B2   B   0.759602417870008   0.662755491059562   0.111035480964488   1.0000000
B2   B   0.762451154195980   0.810420135951416   0.110989112777922   1.0000000
P2   P   0.481575600972365   0.523449356611181   0.111250133477655   1.0000000
N2   N   0.951608235987886   0.904846821832837   0.111026271824515   1.0000000
N2   N   0.952280277188827   0.048085328351641   0.110969827715317   1.0000000
N2   N   0.952602616120984   0.190607993190498   0.111026765034057   1.0000000
N2   N   0.953132758219533   0.333072409033327   0.110989846553205   1.0000000
N2   N   0.953895725481328   0.475788068261104   0.110898799371665   1.0000000
N2   N   0.952590507497268   0.618840681292198   0.110947318369289   1.0000000
N2   N   0.951392239544529   0.761527981001948   0.111040639059855   1.0000000
N2   N   0.094161911983783   0.904872499542160   0.110965796415373   1.0000000
N2   N   0.094568726209852   0.047788872126702   0.110990702924900   1.0000000
N2   N   0.094693046788559   0.190427030700619   0.110950863700655   1.0000000
N2   N   0.095004027756600   0.333396648248973   0.110962340519844   1.0000000
N2   N   0.095104613190521   0.476463950394456   0.110982020794854   1.0000000
N2   N   0.094958830154263   0.619537761188653   0.111030252193059   1.0000000
N2   N   0.094395072425503   0.762293221362786   0.110954488134139   1.0000000
N2   N   0.236997307709141   0.905153644947179   0.110992163641306   1.0000000
N2   N   0.237188838238429   0.047707836493747   0.111024007208326   1.0000000
N2   N   0.237637584935776   0.190548524449922   0.110974757802615   1.0000000
N2   N   0.236575180551838   0.332538047704957   0.110915965808345   1.0000000
N2   N   0.236123461723991   0.476446837205023   0.110974681428127   1.0000000
N2   N   0.237179716978368   0.619904290162181   0.111140435820107   1.0000000
N2   N   0.237100754491295   0.762676710575577   0.111088132970855   1.0000000
N2   N   0.379937475859289   0.905365209728817   0.111024692890418   1.0000000
N2   N   0.380052906442542   0.047497193554870   0.111019641761171   1.0000000
N2   N   0.380577251467803   0.189984539894913   0.111118365435640   1.0000000
N2   N   0.381322335746556   0.333159128753961   0.110993525240556   1.0000000
N2   N   0.373594164979574   0.473778362812095   0.110850096027468   1.0000000
N2   N   0.379611178356524   0.620408571810311   0.111079878385519   1.0000000
N2   N   0.379915356025389   0.763163354986068   0.111094611540148   1.0000000
N2   N   0.523265550164574   0.906206944018746   0.110984000347785   1.0000000
N2   N   0.523328900880867   0.047382396685076   0.110988284682832   1.0000000
N2   N   0.523810062480904   0.188606687826106   0.111029369814672   1.0000000
N2   N   0.525497758390731   0.330053900667684   0.111116470744885   1.0000000
N2   N   0.531089663688092   0.471521227633751   0.111938931270387   1.0000000
N2   N   0.526298649164959   0.629047858283066   0.110867113026183   1.0000000
N2   N   0.523450655227779   0.765469661043665   0.110978092581893   1.0000000
N2   N   0.666866483352886   0.906921795538387   0.110970073786625   1.0000000
N2   N   0.666765339112725   0.047774532774423   0.111048143971724   1.0000000
N2   N   0.667265865626025   0.188510812236802   0.110909189442579   1.0000000
N2   N   0.668585861710518   0.328474032918194   0.111074991454620   1.0000000
N2   N   0.674437892943875   0.466857443139470   0.110589620062223   1.0000000
N2   N   0.666564029302686   0.624714309611345   0.111139994124043   1.0000000
N2   N   0.667947088024654   0.766983288869018   0.111006065401886   1.0000000
N2   N   0.809934426766209   0.906070694051208   0.110982112526832   1.0000000
N2   N   0.809816077943041   0.048173256933059   0.111035621685340   1.0000000
N2   N   0.810178256522265   0.189991204486767   0.111055309409249   1.0000000
N2   N   0.811153895071266   0.331768478025662   0.110794265188798   1.0000000
N2   N   0.813381728329226   0.474199654953987   0.111227632587909   1.0000000
N2   N   0.809280638209953   0.616785242424020   0.111003762904716   1.0000000
N2   N   0.808637039279467   0.761575418153211   0.110937654122870   1.0000000


