data_1
_audit_creation_method   'vasp2cif'
_cell_length_a    14.93631414619966
_cell_length_b    14.936314146199727
_cell_length_c    13.341276283792837
_cell_angle_alpha    90.0
_cell_angle_beta    90.0
_cell_angle_gamma    119.99999999999984

_symmetry_space_group_name_H-M    'P 1'
loop_
_atom_site_label
_atom_site_type_symbol
_atom_site_fract_x
_atom_site_fract_y
_atom_site_fract_z
_atom_site_occupancy
N2   N   0.111104319546177   0.055568246029299   0.124877964277586   1.0000000
N2   N   0.611104056960591   0.555567470772022   0.124849022351584   1.0000000
N2   N   0.444463926483122   0.055568246029299   0.124877964277586   1.0000000
N2   N   0.944429488522260   0.555541341258307   0.124902488477714   1.0000000
N2   N   0.777777777777779   0.055555555555557   0.124901903977128   1.0000000
N2   N   0.111111111111114   0.722222222222221   0.625092464247670   1.0000000
N2   N   0.444463926483122   0.722229013787159   0.625122035722414   1.0000000
N2   N   0.277765862561313   0.222229276372745   0.625150977648417   1.0000000
N2   N   0.777765087304037   0.722229013787159   0.625122035722414   1.0000000
N2   N   0.611121975089632   0.222211358243704   0.625141702769767   1.0000000
N2   N   0.944430641668754   0.222210040110143   0.625099977662670   1.0000000
N2   N   0.277791992075028   0.722221480597289   0.124902488477714   1.0000000
N2   N   0.111089383154079   0.222211358243704   0.124858297230233   1.0000000
N2   N   0.444463413811432   0.222229276372745   0.124849022351584   1.0000000
N2   N   0.611121975089632   0.722243950179258   0.124858297230233   1.0000000
N2   N   0.944429488522260   0.722221480597289   0.124902488477714   1.0000000
N2   N   0.777779398441388   0.222210040110143   0.124900022337330   1.0000000
N2   N   0.111111852736047   0.888903844811068   0.625097511522286   1.0000000
N2   N   0.444460809822646   0.888897071577987   0.625091847207709   1.0000000
N2   N   0.277765862561313   0.388869919521897   0.625150977648417   1.0000000
N2   N   0.611104056960591   0.388869919521897   0.625150977648417   1.0000000
N2   N   0.777779398441388   0.888902691664574   0.625099977662670   1.0000000
N2   N   0.944436261755342   0.388872523510683   0.625091847207709   1.0000000
N2   N   0.111104319546177   0.388869406850206   0.124877964277586   1.0000000
N2   N   0.277791992075028   0.888903844811068   0.124902488477714   1.0000000
N2   N   0.611123293223193   0.888902691664574   0.124900022337330   1.0000000
N2   N   0.444444444444443   0.388888888888886   0.124164159620314   1.0000000
N2   N   0.944436261755342   0.888897071577987   0.124908152792291   1.0000000
N2   N   0.777765087304037   0.388869406850206   0.124877964277586   1.0000000
N2   N   0.277788825268412   0.555544508064924   0.625135024702659   1.0000000
N2   N   0.111104319546177   0.055568246029299   0.625122035722414   1.0000000
N2   N   0.611104056960591   0.555567470772022   0.625150977648417   1.0000000
N2   N   0.444463926483122   0.055568246029299   0.625122035722414   1.0000000
N2   N   0.944429488522260   0.555541341258307   0.625097511522286   1.0000000
N2   N   0.111111852736047   0.555541341258307   0.124902488477714   1.0000000
N2   N   0.777777777777779   0.055555555555557   0.625098096022872   1.0000000
N2   N   0.277788825268412   0.055577650536824   0.124864975297341   1.0000000
N2   N   0.444463413811432   0.555567470772022   0.124849022351584   1.0000000
N2   N   0.777755682796512   0.555544508064924   0.124864975297341   1.0000000
N2   N   0.611123293223193   0.055553934891948   0.124900022337330   1.0000000
N2   N   0.444463413811432   0.555567470772022   0.625150977648417   1.0000000
N2   N   0.944430641668754   0.055553934891948   0.124900022337330   1.0000000
N2   N   0.277791992075028   0.722221480597289   0.625097511522286   1.0000000
N2   N   0.111089383154079   0.222211358243704   0.625141702769767   1.0000000
N2   N   0.444463413811432   0.222229276372745   0.625150977648417   1.0000000
N2   N   0.611121975089632   0.722243950179258   0.625141702769767   1.0000000
N2   N   0.944429488522260   0.722221480597289   0.625097511522286   1.0000000
N2   N   0.777779398441388   0.222210040110143   0.625099977662670   1.0000000
N2   N   0.111111111111114   0.722222222222221   0.124907535752330   1.0000000
N2   N   0.444463926483122   0.722229013787159   0.124877964277586   1.0000000
N2   N   0.277765862561313   0.222229276372745   0.124849022351584   1.0000000
N2   N   0.777765087304037   0.722229013787159   0.124877964277586   1.0000000
N2   N   0.611121975089632   0.222211358243704   0.124858297230233   1.0000000
N2   N   0.944430641668754   0.222210040110143   0.124900022337330   1.0000000
N2   N   0.111104319546177   0.388869406850206   0.625122035722414   1.0000000
N2   N   0.277791992075028   0.888903844811068   0.625097511522286   1.0000000
N2   N   0.611123293223193   0.888902691664574   0.625099977662670   1.0000000
N2   N   0.444444444444443   0.388888888888886   0.625835840379686   1.0000000
N2   N   0.944436261755342   0.888897071577987   0.625091847207709   1.0000000
N2   N   0.111111852736047   0.888903844811068   0.124902488477714   1.0000000
N2   N   0.777765087304037   0.388869406850206   0.625122035722414   1.0000000
N2   N   0.444460809822646   0.888897071577987   0.124908152792291   1.0000000
N2   N   0.277765862561313   0.388869919521897   0.124849022351584   1.0000000
N2   N   0.277788825268412   0.555544508064924   0.124864975297341   1.0000000
N2   N   0.611104056960591   0.388869919521897   0.124849022351584   1.0000000
N2   N   0.777779398441388   0.888902691664574   0.124900022337330   1.0000000
N2   N   0.944436261755342   0.388872523510683   0.124908152792291   1.0000000
N2   N   0.111111852736047   0.555541341258307   0.625097511522286   1.0000000
N2   N   0.277788825268412   0.055577650536824   0.625135024702659   1.0000000
N2   N   0.777755682796512   0.555544508064924   0.625135024702659   1.0000000
N2   N   0.611123293223193   0.055553934891948   0.625099977662670   1.0000000
N2   N   0.944430641668754   0.055553934891948   0.625099977662670   1.0000000
N2   N   0.055295175451200   0.110891286704907   0.375000000000000   1.0000000
N2   N   0.556032725348245   0.612065450696489   0.375000000000000   1.0000000
N2   N   0.388862241031814   0.110811470673187   0.375000000000000   1.0000000
N2   N   0.889018121652364   0.611175727492854   0.375000000000000   1.0000000
N2   N   0.722246694638612   0.111086638694724   0.375000000000000   1.0000000
N2   N   0.055556790371606   0.777776542961729   0.875000000000000   1.0000000
N2   N   0.388883724429572   0.777777445792648   0.875000000000000   1.0000000
N2   N   0.222223080113450   0.277778206723393   0.875000000000000   1.0000000
N2   N   0.722224508966370   0.777776280277639   0.875000000000000   1.0000000
N2   N   0.555555126609943   0.277778206723393   0.875000000000000   1.0000000
N2   N   0.888892255906826   0.277784511813659   0.875000000000000   1.0000000
N2   N   0.222166051850619   0.777749692591977   0.375000000000000   1.0000000
N2   N   0.055295175451200   0.277737222079629   0.375000000000000   1.0000000
N2   N   0.386644189080811   0.273288378161629   0.375000000000000   1.0000000
N2   N   0.555596111253706   0.778038157882135   0.375000000000000   1.0000000
N2   N   0.889013047949168   0.777807694082452   0.375000000000000   1.0000000
N2   N   0.722442046628429   0.277737222079629   0.375000000000000   1.0000000
N2   N   0.055555887540688   0.944439611970259   0.875000000000000   1.0000000
N2   N   0.388883724429572   0.944439611970259   0.875000000000000   1.0000000
N2   N   0.222220575911144   0.444448391414893   0.875000000000000   1.0000000
N2   N   0.555559566900775   0.444446450117052   0.875000000000000   1.0000000
N2   N   0.722221090474259   0.944442180948518   0.875000000000000   1.0000000
N2   N   0.888893721363069   0.444449608903757   0.875000000000000   1.0000000
N2   N   0.055525639250884   0.444538687200051   0.375000000000000   1.0000000
N2   N   0.222157605840482   0.944315211680964   0.375000000000000   1.0000000
N2   N   0.555507955416799   0.944420644375064   0.375000000000000   1.0000000
N2   N   0.386644189080811   0.446689144252518   0.375000000000000   1.0000000
N2   N   0.888912688958265   0.944420644375064   0.375000000000000   1.0000000
N2   N   0.722521862660149   0.444471092301515   0.375000000000000   1.0000000
N2   N   0.222218643843101   0.611114689490234   0.875000000000000   1.0000000
N2   N   0.055557053055697   0.111108824366965   0.875000000000000   1.0000000
N2   N   0.555555126609943   0.611110253219886   0.875000000000000   1.0000000
N2   N   0.388884941918436   0.111105517829587   0.875000000000000   1.0000000
N2   N   0.888896045647126   0.611114689490234   0.875000000000000   1.0000000
N2   N   0.055583640741358   0.611167281482717   0.375000000000000   1.0000000
N2   N   0.722221090474259   0.111112242859077   0.875000000000000   1.0000000
N2   N   0.221949229641366   0.110811470673187   0.375000000000000   1.0000000
N2   N   0.388862241031814   0.611384103691970   0.375000000000000   1.0000000
N2   N   0.722521862660149   0.611384103691970   0.375000000000000   1.0000000
N2   N   0.555596111253706   0.110891286704907   0.375000000000000   1.0000000
N2   N   0.388884941918436   0.611112757422192   0.875000000000000   1.0000000
N2   N   0.888839944056105   0.111086638694724   0.375000000000000   1.0000000
N2   N   0.222219752590124   0.777776542961729   0.875000000000000   1.0000000
N2   N   0.055557053055697   0.277781562022068   0.875000000000000   1.0000000
N2   N   0.388886883216277   0.277773766432560   0.875000000000000   1.0000000
N2   N   0.555551771311268   0.777776280277639   0.875000000000000   1.0000000
N2   N   0.888893721363069   0.777777445792648   0.875000000000000   1.0000000
N2   N   0.722224508966370   0.277781562022068   0.875000000000000   1.0000000
N2   N   0.055583640741358   0.777749692591977   0.375000000000000   1.0000000
N2   N   0.388794646133278   0.777807694082452   0.375000000000000   1.0000000
N2   N   0.221267882636846   0.277300607985091   0.375000000000000   1.0000000
N2   N   0.722442046628429   0.778038157882135   0.375000000000000   1.0000000
N2   N   0.556032725348245   0.277300607985091   0.375000000000000   1.0000000
N2   N   0.888912688958265   0.277825377916537   0.375000000000000   1.0000000
N2   N   0.055555887540688   0.444449608903757   0.875000000000000   1.0000000
N2   N   0.222218643843101   0.944437287686203   0.875000000000000   1.0000000
N2   N   0.555548821519676   0.944441077426503   0.875000000000000   1.0000000
N2   N   0.388886883216277   0.444446450117052   0.875000000000000   1.0000000
N2   N   0.888892255906826   0.944441077426503   0.875000000000000   1.0000000
N2   N   0.055525639250884   0.944320285384161   0.375000000000000   1.0000000
N2   N   0.722227815503749   0.444448391414893   0.875000000000000   1.0000000
N2   N   0.388794646133278   0.944320285384161   0.375000000000000   1.0000000
N2   N   0.221949229641366   0.444471092301515   0.375000000000000   1.0000000
N2   N   0.222157605840482   0.611175727492854   0.375000000000000   1.0000000
N2   N   0.560044955171707   0.446689144252518   0.375000000000000   1.0000000
N2   N   0.722246694638612   0.944493389277224   0.375000000000000   1.0000000
N2   N   0.889013047949168   0.444538687200051   0.375000000000000   1.0000000
N2   N   0.055556790371606   0.611113580743212   0.875000000000000   1.0000000
N2   N   0.222220575911144   0.111105517829587   0.875000000000000   1.0000000
N2   N   0.722227815503749   0.611112757422192   0.875000000000000   1.0000000
N2   N   0.555551771311268   0.111108824366965   0.875000000000000   1.0000000
N2   N   0.888891152384811   0.111112242859077   0.875000000000000   1.0000000
B2   B   0.111434794500588   0.055751835079316   0.375000000000000   1.0000000
B2   B   0.609483268899109   0.554335498948919   0.375000000000000   1.0000000
B2   B   0.444317040578728   0.055751835079316   0.375000000000000   1.0000000
B2   B   0.944394235584227   0.555610197944569   0.375000000000000   1.0000000
B2   B   0.777777777777779   0.055555555555557   0.375000000000000   1.0000000
B2   B   0.111111111111114   0.722222222222221   0.875000000000000   1.0000000
B2   B   0.444431007361583   0.722180263850414   0.875000000000000   1.0000000
B2   B   0.277832852226479   0.222267278544618   0.875000000000000   1.0000000
B2   B   0.777749256488831   0.722180263850414   0.875000000000000   1.0000000
B2   B   0.611080014296036   0.222253319037299   0.875000000000000   1.0000000
B2   B   0.944472414440208   0.222241685612058   0.875000000000000   1.0000000
B2   B   0.277723135388767   0.722117370972994   0.375000000000000   1.0000000
B2   B   0.111327937025981   0.222330635179655   0.375000000000000   1.0000000
B2   B   0.444852230049809   0.223850064434226   0.375000000000000   1.0000000
B2   B   0.611002698153681   0.722005396307355   0.375000000000000   1.0000000
B2   B   0.944394235584227   0.722117370972994   0.375000000000000   1.0000000
B2   B   0.777772699887117   0.222328822671655   0.375000000000000   1.0000000
B2   B   0.111122580683381   0.888900498249438   0.875000000000000   1.0000000
B2   B   0.444428977932251   0.888881155632790   0.875000000000000   1.0000000
B2   B   0.277832852226479   0.388898907015189   0.875000000000000   1.0000000
B2   B   0.611066054788717   0.388898907015189   0.875000000000000   1.0000000
B2   B   0.777769271171850   0.888860918893121   0.875000000000000   1.0000000
B2   B   0.944452177700539   0.388904355401077   0.875000000000000   1.0000000
B2   B   0.111434794500588   0.389016292754601   0.375000000000000   1.0000000
B2   B   0.277723135388767   0.888939097749102   0.375000000000000   1.0000000
B2   B   0.611004510661681   0.888777210548790   0.375000000000000   1.0000000
B2   B   0.944507343169395   0.888825990163933   0.375000000000000   1.0000000
B2   B   0.777581498254020   0.389016292754601   0.375000000000000   1.0000000
B2   B   0.277796423878855   0.555536909454481   0.875000000000000   1.0000000
B2   B   0.111153069482922   0.055584076844505   0.875000000000000   1.0000000
B2   B   0.611066054788717   0.555500481106857   0.875000000000000   1.0000000
B2   B   0.444431007361583   0.055584076844505   0.875000000000000   1.0000000
B2   B   0.944432835083890   0.555555415767271   0.875000000000000   1.0000000
B2   B   0.111215962360341   0.555610197944569   0.375000000000000   1.0000000
B2   B   0.777777777777779   0.055555555555557   0.875000000000000   1.0000000
B2   B   0.277988644797176   0.055977289594352   0.375000000000000   1.0000000
B2   B   0.444852230049809   0.554335498948919   0.375000000000000   1.0000000
B2   B   0.777356043738983   0.555344688536159   0.375000000000000   1.0000000
B2   B   0.611004510661681   0.055560633446219   0.375000000000000   1.0000000
B2   B   0.444434426318140   0.555500481106857   0.875000000000000   1.0000000
B2   B   0.944556122784539   0.055560633446219   0.375000000000000   1.0000000
B2   B   0.277777917566065   0.722210752649955   0.875000000000000   1.0000000
B2   B   0.111173304741270   0.222253319037299   0.875000000000000   1.0000000
B2   B   0.444434426318140   0.222267278544618   0.875000000000000   1.0000000
B2   B   0.611080014296036   0.722160028592066   0.875000000000000   1.0000000
B2   B   0.944432835083890   0.722210752649955   0.875000000000000   1.0000000
B2   B   0.777769271171850   0.222241685612058   0.875000000000000   1.0000000
B2   B   0.111111111111114   0.722222222222221   0.375000000000000   1.0000000
B2   B   0.444317040578728   0.721898538832748   0.375000000000000   1.0000000
B2   B   0.278997834384416   0.223850064434226   0.375000000000000   1.0000000
B2   B   0.777581498254020   0.721898538832748   0.375000000000000   1.0000000
B2   B   0.611002698153681   0.222330635179655   0.375000000000000   1.0000000
B2   B   0.944556122784539   0.222328822671655   0.375000000000000   1.0000000
B2   B   0.111153069482922   0.388902325971746   0.875000000000000   1.0000000
B2   B   0.277777917566065   0.888900498249438   0.875000000000000   1.0000000
B2   B   0.611091647721278   0.888860918893121   0.875000000000000   1.0000000
B2   B   0.444444444444443   0.388888888888886   0.875000000000000   1.0000000
B2   B   0.944452177700539   0.888881155632790   0.875000000000000   1.0000000
B2   B   0.111215962360341   0.888939097749102   0.375000000000000   1.0000000
B2   B   0.777749256488831   0.388902325971746   0.875000000000000   1.0000000
B2   B   0.444318646994538   0.888825990163933   0.375000000000000   1.0000000
B2   B   0.278997834384416   0.388481103283519   0.375000000000000   1.0000000
B2   B   0.277988644797176   0.555344688536159   0.375000000000000   1.0000000
B2   B   0.609483268899109   0.388481103283519   0.375000000000000   1.0000000
B2   B   0.777772699887117   0.888777210548790   0.375000000000000   1.0000000
B2   B   0.944507343169395   0.389014686338790   0.375000000000000   1.0000000
B2   B   0.111122580683381   0.555555415767271   0.875000000000000   1.0000000
B2   B   0.277796423878855   0.055592847757709   0.875000000000000   1.0000000
B2   B   0.777740485575627   0.555536909454481   0.875000000000000   1.0000000
B2   B   0.611091647721278   0.055564062161486   0.875000000000000   1.0000000
B2   B   0.944472414440208   0.055564062161486   0.875000000000000   1.0000000
B2   B   0.055632027426483   0.111188260097179   0.125112442124757   1.0000000
B2   B   0.555468443247685   0.610936886495372   0.125336504138229   1.0000000
B2   B   0.388968158640831   0.111328500940113   0.125234075514754   1.0000000
B2   B   0.888749717826319   0.611041525579831   0.125101774346820   1.0000000
B2   B   0.722212776878771   0.111120556454564   0.125070598027248   1.0000000
B2   B   0.055536029403284   0.777797303930051   0.624926211265097   1.0000000
B2   B   0.388938747226367   0.777742360349877   0.624909316539746   1.0000000
B2   B   0.222396446837964   0.277864890085650   0.624663495861771   1.0000000
B2   B   0.722145073236156   0.777701305906853   0.624887557875243   1.0000000
B2   B   0.555468443247685   0.277864890085650   0.624663495861771   1.0000000
B2   B   0.888880961062182   0.277761922124371   0.624922425824199   1.0000000
B2   B   0.222261274526767   0.777797303930051   0.125073788734903   1.0000000
B2   B   0.055632027426483   0.277777100662639   0.125112442124757   1.0000000
B2   B   0.389021877585693   0.278043755171393   0.125889309048498   1.0000000
B2   B   0.555556232670697   0.777701305906853   0.125112442124757   1.0000000
B2   B   0.888803613123503   0.777742360349877   0.125090683460254   1.0000000
B2   B   0.722145073236156   0.277777100662639   0.125112442124757   1.0000000
B2   B   0.055590972983459   0.944529720209826   0.624909316539746   1.0000000
B2   B   0.388938747226367   0.944529720209826   0.624909316539746   1.0000000
B2   B   0.222360342299276   0.444365174692498   0.624765924485246   1.0000000
B2   B   0.555289578161943   0.444311455747636   0.624110690951501   1.0000000
B2   B   0.722212776878771   0.944425553757543   0.624929401972752   1.0000000
B2   B   0.888803613123503   0.444394586106961   0.624909316539746   1.0000000
B2   B   0.055590972983459   0.444394586106961   0.125090683460254   1.0000000
B2   B   0.222291807753505   0.944583615507010   0.125101774346820   1.0000000
B2   B   0.555571411208965   0.944452372271147   0.125077574175801   1.0000000
B2   B   0.389021877585693   0.444311455747636   0.125889309048498   1.0000000
B2   B   0.888880961062182   0.944452372271147   0.125077574175801   1.0000000
B2   B   0.722004832393222   0.444365174692498   0.125234075514754   1.0000000
B2   B   0.222291807753505   0.611041525579831   0.624898225653180   1.0000000
B2   B   0.055632027426483   0.111188260097179   0.624887557875243   1.0000000
B2   B   0.555468443247685   0.610936886495372   0.624663495861771   1.0000000
B2   B   0.388968158640831   0.111328500940113   0.624765924485246   1.0000000
B2   B   0.888749717826319   0.611041525579831   0.624898225653180   1.0000000
B2   B   0.055536029403284   0.611072058806569   0.125073788734903   1.0000000
B2   B   0.722212776878771   0.111120556454564   0.624929401972752   1.0000000
B2   B   0.222360342299276   0.111328500940113   0.125234075514754   1.0000000
B2   B   0.388968158640831   0.610972991034060   0.125234075514754   1.0000000
B2   B   0.722004832393222   0.610972991034060   0.125234075514754   1.0000000
B2   B   0.555556232670697   0.111188260097179   0.125112442124757   1.0000000
B2   B   0.388968158640831   0.610972991034060   0.624765924485246   1.0000000
B2   B   0.888907779575786   0.111120556454564   0.125070598027248   1.0000000
B2   B   0.222261274526767   0.777797303930051   0.624926211265097   1.0000000
B2   B   0.055632027426483   0.277777100662639   0.624887557875243   1.0000000
B2   B   0.389021877585693   0.278043755171393   0.624110690951501   1.0000000
B2   B   0.555556232670697   0.777701305906853   0.624887557875243   1.0000000
B2   B   0.888803613123503   0.777742360349877   0.624909316539746   1.0000000
B2   B   0.722145073236156   0.277777100662639   0.624887557875243   1.0000000
B2   B   0.055536029403284   0.777797303930051   0.125073788734903   1.0000000
B2   B   0.388938747226367   0.777742360349877   0.125090683460254   1.0000000
B2   B   0.222396446837964   0.277864890085650   0.125336504138229   1.0000000
B2   B   0.722145073236156   0.777701305906853   0.125112442124757   1.0000000
B2   B   0.555468443247685   0.277864890085650   0.125336504138229   1.0000000
B2   B   0.888880961062182   0.277761922124371   0.125077574175801   1.0000000
B2   B   0.055590972983459   0.444394586106961   0.624909316539746   1.0000000
B2   B   0.222291807753505   0.944583615507010   0.624898225653180   1.0000000
B2   B   0.555571411208965   0.944452372271147   0.624922425824199   1.0000000
B2   B   0.389021877585693   0.444311455747636   0.624110690951501   1.0000000
B2   B   0.888880961062182   0.944452372271147   0.624922425824199   1.0000000
B2   B   0.055590972983459   0.944529720209826   0.125090683460254   1.0000000
B2   B   0.722004832393222   0.444365174692498   0.624765924485246   1.0000000
B2   B   0.388938747226367   0.944529720209826   0.125090683460254   1.0000000
B2   B   0.222360342299276   0.444365174692498   0.125234075514754   1.0000000
B2   B   0.222291807753505   0.611041525579831   0.125101774346820   1.0000000
B2   B   0.555289578161943   0.444311455747636   0.125889309048498   1.0000000
B2   B   0.722212776878771   0.944425553757543   0.125070598027248   1.0000000
B2   B   0.888803613123503   0.444394586106961   0.125090683460254   1.0000000
B2   B   0.055536029403284   0.611072058806569   0.624926211265097   1.0000000
B2   B   0.222360342299276   0.111328500940113   0.624765924485246   1.0000000
B2   B   0.722004832393222   0.610972991034060   0.624765924485246   1.0000000
B2   B   0.555556232670697   0.111188260097179   0.624887557875243   1.0000000
B2   B   0.888907779575786   0.111120556454564   0.624929401972752   1.0000000


