data_1
_audit_creation_method   'vasp2cif'
_cell_length_a    17.52789999999977
_cell_length_b    17.52789999999977
_cell_length_c    15.0
_cell_angle_alpha    90.0
_cell_angle_beta    90.0
_cell_angle_gamma    119.99999999999916

_symmetry_space_group_name_H-M    'P 1'
loop_
_atom_site_label
_atom_site_type_symbol
_atom_site_fract_x
_atom_site_fract_y
_atom_site_fract_z
_atom_site_occupancy
B2   B   0.906467437557147   0.953790437824459   0.110981105182652   1.0000000
B2   B   0.904332399470719   0.095089059224077   0.111019278041891   1.0000000
B2   B   0.903475828045008   0.237538481792970   0.111054166575855   1.0000000
B2   B   0.903126148114837   0.380471517158512   0.110957663233543   1.0000000
B2   B   0.903652036880450   0.523642832511375   0.110959842756671   1.0000000
B2   B   0.905201792279298   0.667008111282776   0.111055394203450   1.0000000
B2   B   0.906370694669548   0.810522276752398   0.111035630726219   1.0000000
B2   B   0.048970935365988   0.953504030576755   0.110935281121986   1.0000000
B2   B   0.048492258667919   0.096256055862336   0.110957752810356   1.0000000
B2   B   0.046793149779511   0.237712677415210   0.110972185808158   1.0000000
B2   B   0.046103953233669   0.380143749287770   0.110967891410518   1.0000000
B2   B   0.046318993582248   0.523231668634271   0.110966079324198   1.0000000
B2   B   0.047615355302027   0.666496668108629   0.110979694166361   1.0000000
B2   B   0.048506751459568   0.809967462599693   0.110970714278215   1.0000000
B2   B   0.191260242341470   0.952851473361621   0.110960404832717   1.0000000
B2   B   0.191731427573079   0.096722301890343   0.110958918878866   1.0000000
B2   B   0.191129000097466   0.239254615744722   0.110981279647118   1.0000000
B2   B   0.189037196149959   0.379800064489784   0.110952222264529   1.0000000
B2   B   0.188575549701434   0.522564212856430   0.111030193402387   1.0000000
B2   B   0.190275213843852   0.665845103913250   0.111032302860287   1.0000000
B2   B   0.191018851877529   0.809289211992748   0.110967288689791   1.0000000
B2   B   0.333785170673646   0.952008751671074   0.111002217695860   1.0000000
B2   B   0.333710278269337   0.095834961179984   0.111035288933275   1.0000000
B2   B   0.334963187515533   0.240390655733118   0.111076071537293   1.0000000
B2   B   0.334863249729053   0.383062115543075   0.111092162325689   1.0000000
B2   B   0.329340890073653   0.521075295973562   0.111112920369305   1.0000000
B2   B   0.333000326234279   0.664467303130397   0.111080513837216   1.0000000
B2   B   0.333766086802685   0.808073779376593   0.111027709329371   1.0000000
B2   B   0.476102638220587   0.950152406512516   0.110966051256090   1.0000000
B2   B   0.475995925142330   0.095704290378047   0.110955497549201   1.0000000
B2   B   0.475402140413002   0.241069591875264   0.111065933252239   1.0000000
B2   B   0.473169945684050   0.652149217766614   0.111203098023338   1.0000000
B2   B   0.476200385692040   0.803482780983746   0.111038227924080   1.0000000
B2   B   0.618255608298568   0.950618965390937   0.110993997974427   1.0000000
B2   B   0.618104186991631   0.094434015457817   0.110988039636813   1.0000000
B2   B   0.617943501525344   0.238332443280619   0.110961660826279   1.0000000
B2   B   0.616821481116706   0.382354581925143   0.111026043122307   1.0000000
B2   B   0.643107324116983   0.676729687199845   0.111080614703022   1.0000000
B2   B   0.618390331086857   0.807458567760194   0.111012570962605   1.0000000
B2   B   0.761652938680453   0.951936836652893   0.110978919128238   1.0000000
B2   B   0.760831335533030   0.094519828666010   0.111085088532803   1.0000000
B2   B   0.760505004529441   0.237732304815511   0.111033780655808   1.0000000
B2   B   0.760014046768243   0.381051899725734   0.110987161694332   1.0000000
B2   B   0.760784863563510   0.525049000379499   0.111034137619342   1.0000000
B2   B   0.761786280104006   0.665944726567167   0.111135914542724   1.0000000
B2   B   0.766121762553632   0.812250710861893   0.110991245704972   1.0000000
C2   C   0.477796562834745   0.388486695240420   0.111309215719201   1.0000000
C2   C   0.473425478508373   0.533446069803155   0.111474595800754   1.0000000
C2   C   0.516030228552059   0.481462075029025   0.111502294613917   1.0000000
N2   N   0.953939650660299   0.906111870582147   0.110959497591750   1.0000000
N2   N   0.953293814307927   0.048741629601255   0.110967125876131   1.0000000
N2   N   0.951568325642808   0.190180624134958   0.111005364128264   1.0000000
N2   N   0.950957308826222   0.332713306076973   0.110974691147477   1.0000000
N2   N   0.951241308891218   0.475729317172057   0.110909891061007   1.0000000
N2   N   0.952642290096331   0.619087025189820   0.110977527065445   1.0000000
N2   N   0.953682347226088   0.762682001061053   0.111014532540448   1.0000000
N2   N   0.096310884482331   0.905519501403508   0.110923871772796   1.0000000
N2   N   0.096563688401560   0.049034972882612   0.110921203816884   1.0000000
N2   N   0.095838921670697   0.191415427749401   0.110955853739793   1.0000000
N2   N   0.094082414271279   0.332630419436664   0.110932762511956   1.0000000
N2   N   0.093761875890587   0.475356030770773   0.110964405472274   1.0000000
N2   N   0.095124458914493   0.618581627917666   0.110979906615358   1.0000000
N2   N   0.095969533622271   0.761997491291612   0.110939410779564   1.0000000
N2   N   0.238722301651327   0.904765225648067   0.110960833382132   1.0000000
N2   N   0.238772666271452   0.048442117049134   0.110964632184044   1.0000000
N2   N   0.239668852072243   0.192654478916833   0.110979689824781   1.0000000
N2   N   0.239161290746236   0.334502493595582   0.110953276543784   1.0000000
N2   N   0.235425847251137   0.474366977146346   0.110987993414582   1.0000000
N2   N   0.237814097390803   0.617745332191721   0.111047487502367   1.0000000
N2   N   0.238591847299953   0.761152562419460   0.111000345589106   1.0000000
N2   N   0.381047688831416   0.903408373448553   0.110980876779211   1.0000000
N2   N   0.380944207963989   0.047635849021834   0.110986994421351   1.0000000
N2   N   0.380776131065502   0.191501756070321   0.111072762028387   1.0000000
N2   N   0.384108008443456   0.336942306118567   0.111109636700232   1.0000000
N2   N   0.380528685282914   0.478117973980960   0.111196669934449   1.0000000
N2   N   0.379888056437392   0.615092849765545   0.111106255647620   1.0000000
N2   N   0.381194866266987   0.759205188476783   0.111034945738755   1.0000000
N2   N   0.523050041233171   0.900418809713728   0.110963276639217   1.0000000
N2   N   0.522927292113693   0.046380075257554   0.110930062540273   1.0000000
N2   N   0.522649948064098   0.191949478403531   0.110944987501579   1.0000000
N2   N   0.520536093560182   0.337764506488021   0.111161074222974   1.0000000
N2   N   0.523084828358044   0.751635596717011   0.111093512130909   1.0000000
N2   N   0.665680257040706   0.902896800148317   0.110967685912684   1.0000000
N2   N   0.665402328363609   0.046170573999452   0.111011770214655   1.0000000
N2   N   0.665156090079686   0.189810827548236   0.110977311117446   1.0000000
N2   N   0.664323320458732   0.332916804906560   0.110957198722490   1.0000000
N2   N   0.667951107529022   0.472865212655835   0.110909698525607   1.0000000
N2   N   0.668208831949518   0.619410644127586   0.111165906297503   1.0000000
N2   N   0.669736587376814   0.765293758682916   0.110941890721388   1.0000000
N2   N   0.811326281590014   0.906575264785588   0.110951413986392   1.0000000
N2   N   0.808812227057091   0.047137022739698   0.111020112530284   1.0000000
N2   N   0.808166997517898   0.189795118448829   0.111079573439827   1.0000000
N2   N   0.807824785010430   0.332906578529450   0.110976070073521   1.0000000
N2   N   0.808547699899362   0.476123901537630   0.110973874255052   1.0000000
N2   N   0.810804067471915   0.620016206818185   0.111089296802707   1.0000000
N2   N   0.811649424997564   0.763381789976661   0.111039412471324   1.0000000


