data_1
_audit_creation_method   'vasp2cif'
_cell_length_a    17.52789999999977
_cell_length_b    17.52789999999977
_cell_length_c    15.0
_cell_angle_alpha    90.0
_cell_angle_beta    90.0
_cell_angle_gamma    119.99999999999916

_symmetry_space_group_name_H-M    'P 1'
loop_
_atom_site_label
_atom_site_type_symbol
_atom_site_fract_x
_atom_site_fract_y
_atom_site_fract_z
_atom_site_occupancy
B2   B   0.906502123956770   0.958342268200127   0.111822785809408   1.0000000
B2   B   0.906057367506840   0.100685741455169   0.111815831616852   1.0000000
B2   B   0.906123948682661   0.243254097494674   0.111790452889301   1.0000000
B2   B   0.906751744574591   0.386126456362263   0.111821625621231   1.0000000
B2   B   0.908474093457038   0.529454013800642   0.111823220560803   1.0000000
B2   B   0.908045967349011   0.672990927713466   0.111811487183812   1.0000000
B2   B   0.908515505469460   0.816972647179313   0.111803609693050   1.0000000
B2   B   0.049104998952248   0.957638110009745   0.111839314100826   1.0000000
B2   B   0.048400840761877   0.100240985005227   0.111822785809408   1.0000000
B2   B   0.048205511217434   0.243103791940412   0.111813105221897   1.0000000
B2   B   0.048531616584641   0.386149372287032   0.111807869761233   1.0000000
B2   B   0.049360716132076   0.529367577487185   0.111838808507460   1.0000000
B2   B   0.049676151035764   0.672401964500524   0.111817251338706   1.0000000
B2   B   0.049683595879297   0.815169052269706   0.111807700234538   1.0000000
B2   B   0.191574056692287   0.957059513082709   0.111807700234538   1.0000000
B2   B   0.189770461782688   0.098227603492541   0.111803609693050   1.0000000
B2   B   0.190092720339114   0.242393357117547   0.111826597781330   1.0000000
B2   B   0.190092920555267   0.385892785492514   0.111828944062972   1.0000000
B2   B   0.190469033664501   0.529509908243255   0.111820327994637   1.0000000
B2   B   0.191551918355160   0.672411998519935   0.111826086205535   1.0000000
B2   B   0.191858750570324   0.814884358391679   0.111798566796297   1.0000000
B2   B   0.334341144462474   0.957066957926242   0.111817251338706   1.0000000
B2   B   0.333752181249538   0.098697141612986   0.111811487183812   1.0000000
B2   B   0.329140755168237   0.237549884553076   0.111813525740005   1.0000000
B2   B   0.331916932539652   0.384750224416937   0.111830493134769   1.0000000
B2   B   0.330766952601599   0.530440577303148   0.111837056558736   1.0000000
B2   B   0.333600213408396   0.673142895554612   0.111827054911571   1.0000000
B2   B   0.334331110443068   0.815191190606831   0.111826086205535   1.0000000
B2   B   0.477375531475809   0.957382392829924   0.111838808507460   1.0000000
B2   B   0.477289095162378   0.098269015504953   0.111823220560803   1.0000000
B2   B   0.477247170006866   0.238090577666995   0.111816920619164   1.0000000
B2   B   0.465602968761408   0.364420324450704   0.111906344051023   1.0000000
B2   B   0.476302531659840   0.675976156361397   0.111837056558736   1.0000000
B2   B   0.477233200719743   0.816274075297488   0.111820327994637   1.0000000
B2   B   0.620593736674992   0.958211492377355   0.111807869761233   1.0000000
B2   B   0.620616652599744   0.099991364387419   0.111821625621231   1.0000000
B2   B   0.620924690002935   0.241839568492691   0.111828496369423   1.0000000
B2   B   0.622238674703955   0.384504434258044   0.111841210000949   1.0000000
B2   B   0.642322784511297   0.541140140201590   0.111906344051023   1.0000000
B2   B   0.621992884545080   0.674826176423336   0.111830493134769   1.0000000
B2   B   0.620850323469494   0.816650188406733   0.111828944062972   1.0000000
B2   B   0.763639317021590   0.958537597744566   0.111813105221897   1.0000000
B2   B   0.763489011467322   0.100619160279338   0.111790452889301   1.0000000
B2   B   0.763785626669930   0.242957482292066   0.111819400837362   1.0000000
B2   B   0.764903540469310   0.385818418959054   0.111828496369423   1.0000000
B2   B   0.768652531295004   0.529495938956129   0.111816920619164   1.0000000
B2   B   0.769193224408933   0.677602353794761   0.111813525740005   1.0000000
B2   B   0.764349751844444   0.816650388622898   0.111826597781330   1.0000000
C2   C   0.468626777334665   0.538116331628324   0.112112430334220   1.0000000
N2   N   0.954651403512476   0.911303262970136   0.111809191097498   1.0000000
N2   N   0.953562962707891   0.053179526976105   0.111805870481655   1.0000000
N2   N   0.953408647106274   0.195646161846230   0.111788643774810   1.0000000
N2   N   0.953765597860897   0.338337788266744   0.111787657621631   1.0000000
N2   N   0.954873647890347   0.481324586408790   0.111815558976757   1.0000000
N2   N   0.955069737199569   0.624772437349313   0.111800145007686   1.0000000
N2   N   0.955032053542817   0.768207994686811   0.111788753851497   1.0000000
N2   N   0.096695991806188   0.910046497877812   0.111806532812612   1.0000000
N2   N   0.095439226713859   0.052091086171534   0.111809191097498   1.0000000
N2   N   0.095428609243619   0.195333393238843   0.111806449283429   1.0000000
N2   N   0.095522151949549   0.338242461125952   0.111800537519512   1.0000000
N2   N   0.096027199364475   0.481387808127834   0.111806348884117   1.0000000
N2   N   0.096792568354880   0.624539845272597   0.111814454727356   1.0000000
N2   N   0.097028385495213   0.767434474966397   0.111784653443363   1.0000000
N2   N   0.239308014717606   0.909714104188780   0.111784653443363   1.0000000
N2   N   0.238534494997170   0.051710436141184   0.111788753851497   1.0000000
N2   N   0.235447491445264   0.192429390316749   0.111793101747694   1.0000000
N2   N   0.237366572341876   0.338198161427876   0.111818812644744   1.0000000
N2   N   0.236916804978750   0.481361076451545   0.111808201633299   1.0000000
N2   N   0.238690368006500   0.624739161776841   0.111802976213916   1.0000000
N2   N   0.239337559491688   0.767404930192312   0.111800664015944   1.0000000
N2   N   0.382202644411407   0.909949921329138   0.111814454727356   1.0000000
N2   N   0.381970052334698   0.051672752484435   0.111800145007686   1.0000000
N2   N   0.380835510705303   0.193090455026189   0.111803168938029   1.0000000
N2   N   0.373290933492580   0.330983886970583   0.111814341327513   1.0000000
N2   N   0.377849630447012   0.483330579921292   0.111801120253918   1.0000000
N2   N   0.380903331187032   0.625839158496969   0.111838954966495   1.0000000
N2   N   0.382003327907159   0.768052121677503   0.111802976213916   1.0000000
N2   N   0.525354681555165   0.910715290319525   0.111806348884117   1.0000000
N2   N   0.525417903274205   0.051868841793644   0.111815558976757   1.0000000
N2   N   0.525623230817292   0.192412757416936   0.111803446444341   1.0000000
N2   N   0.525839130854279   0.331390975432791   0.111806583312111   1.0000000
N2   N   0.523411909761713   0.628892859236999   0.111801120253918   1.0000000
N2   N   0.525381413231460   0.769825684705257   0.111808201633299   1.0000000
N2   N   0.668500028557049   0.911220337734451   0.111800537519512   1.0000000
N2   N   0.668404701416249   0.052976891823097   0.111787657621631   1.0000000
N2   N   0.668698482074980   0.194960699645133   0.111808798081440   1.0000000
N2   N   0.669457896764544   0.337284592918456   0.111822518159599   1.0000000
N2   N   0.675351514250207   0.480903358828726   0.111806583312111   1.0000000
N2   N   0.675758602712407   0.633451556191428   0.111814341327513   1.0000000
N2   N   0.668544328255117   0.769375917342121   0.111818812644744   1.0000000
N2   N   0.811409096445147   0.911313880440381   0.111806449283429   1.0000000
N2   N   0.811096327837770   0.053333842577719   0.111788643774810   1.0000000
N2   N   0.811182078667271   0.195560411016721   0.111777824016607   1.0000000
N2   N   0.811781790038856   0.338044007608031   0.111808798081440   1.0000000
N2   N   0.814329732267055   0.481119258865711   0.111803446444341   1.0000000
N2   N   0.813652034657812   0.625906978978701   0.111803168938029   1.0000000
N2   N   0.814313099367243   0.771294998238736   0.111793101747694   1.0000000
Se2   Se   0.525805858034295   0.480936631648696   0.112050248075492   1.0000000


