data_1
_audit_creation_method   'vasp2cif'
_cell_length_a    14.93631414619966
_cell_length_b    14.936314146199727
_cell_length_c    13.341276283792837
_cell_angle_alpha    90.0
_cell_angle_beta    90.0
_cell_angle_gamma    119.99999999999984

_symmetry_space_group_name_H-M    'P 1'
loop_
_atom_site_label
_atom_site_type_symbol
_atom_site_fract_x
_atom_site_fract_y
_atom_site_fract_z
_atom_site_occupancy
S2   S   0.532579600778613   0.432956467055971   0.375000000000000   1.0000000
N2   N   0.111058479622315   0.055540249568644   0.121840380757305   1.0000000
N2   N   0.611080736233545   0.555583809309493   0.122133991671840   1.0000000
N2   N   0.444458752499243   0.055547409734301   0.122381472339531   1.0000000
N2   N   0.944400432230559   0.555524514337476   0.122623515308329   1.0000000
N2   N   0.777761995788619   0.055547664561250   0.121564467086085   1.0000000
N2   N   0.111088097201977   0.722210715267154   0.627012460985169   1.0000000
N2   N   0.444458752499243   0.722244676098901   0.627618527660534   1.0000000
N2   N   0.277682467834678   0.222177727800770   0.627623295698103   1.0000000
N2   N   0.777736507000490   0.722221985697976   0.627979005925796   1.0000000
N2   N   0.611109426092896   0.222175824708396   0.628128668796727   1.0000000
N2   N   0.944393994496046   0.222189773961957   0.628652616631870   1.0000000
N2   N   0.277780441851661   0.722219374030607   0.122835772076256   1.0000000
N2   N   0.111028907042500   0.222181120187817   0.121559983688221   1.0000000
N2   N   0.444450190711992   0.222196818142498   0.122401810292767   1.0000000
N2   N   0.611109426092896   0.722266934717037   0.121871331203430   1.0000000
N2   N   0.944400432230559   0.722209251227273   0.122623515308420   1.0000000
N2   N   0.777760338691485   0.222188388251635   0.121592267994913   1.0000000
N2   N   0.111086728088297   0.888891137523504   0.627475083737930   1.0000000
N2   N   0.444465487010232   0.888899410171636   0.627434959872898   1.0000000
N2   N   0.277682467834678   0.388838073367188   0.627623295698103   1.0000000
N2   N   0.611080736233545   0.388830260256910   0.627866008328048   1.0000000
N2   N   0.777760338691485   0.888905283773123   0.628407732005168   1.0000000
N2   N   0.944405144438211   0.388852908508873   0.628132208177954   1.0000000
N2   N   0.111058479622316   0.388851563387358   0.121840380757301   1.0000000
N2   N   0.277780441851664   0.888894401154629   0.122835772076174   1.0000000
N2   N   0.611121461138787   0.888914037297644   0.122021599525630   1.0000000
N2   N   0.444317222711672   0.388825278022533   0.121910409136464   1.0000000
N2   N   0.944405144438211   0.888885569261832   0.121867791822097   1.0000000
N2   N   0.777736507000490   0.388847854636164   0.122020994073979   1.0000000
N2   N   0.277766596139735   0.555540442222882   0.627519325427312   1.0000000
N2   N   0.111058479622315   0.055540249568644   0.628159619242815   1.0000000
N2   N   0.611080736233545   0.555583809309480   0.627866008328089   1.0000000
N2   N   0.444458752499243   0.055547409734301   0.627618527660534   1.0000000
N2   N   0.944400432230559   0.555524514337476   0.627376484691487   1.0000000
N2   N   0.111086728088297   0.555528923898092   0.122524916262562   1.0000000
N2   N   0.777761995788619   0.055547664561250   0.628435532914056   1.0000000
N2   N   0.277766596139735   0.055559487250453   0.122480674572955   1.0000000
N2   N   0.444450190711992   0.555586705902434   0.122401810292767   1.0000000
N2   N   0.777721083919073   0.555527208625744   0.122464788320422   1.0000000
N2   N   0.611121461138787   0.055540757174399   0.122021599525625   1.0000000
N2   N   0.444450190711992   0.555586705902434   0.627598189706966   1.0000000
N2   N   0.944393994496046   0.055537553867263   0.121347383368569   1.0000000
N2   N   0.277780441851664   0.722219374030607   0.627164227923351   1.0000000
N2   N   0.111028907042500   0.222181120187817   0.628440016311668   1.0000000
N2   N   0.444450190711992   0.222196818142498   0.627598189706966   1.0000000
N2   N   0.611109426092896   0.722266934717037   0.628128668796727   1.0000000
N2   N   0.944400432230559   0.722209251227273   0.627376484691487   1.0000000
N2   N   0.777760338691485   0.222188388251632   0.628407732005168   1.0000000
N2   N   0.111088097201977   0.722210715267154   0.122987539014889   1.0000000
N2   N   0.444458752499243   0.722244676098901   0.122381472339531   1.0000000
N2   N   0.277682467834678   0.222177727800770   0.122376704301968   1.0000000
N2   N   0.777736507000490   0.722221985697976   0.122020994073979   1.0000000
N2   N   0.611109426092896   0.222175824708396   0.121871331203430   1.0000000
N2   N   0.944393994496046   0.222189773961957   0.121347383368570   1.0000000
N2   N   0.111058479622322   0.388851563387358   0.628159619242815   1.0000000
N2   N   0.277780441851664   0.888894401154629   0.627164227923351   1.0000000
N2   N   0.611121461138787   0.888914037297644   0.627978400474680   1.0000000
N2   N   0.444317222711672   0.388825278022533   0.628089590862992   1.0000000
N2   N   0.944405144438211   0.888885569261832   0.628132208177954   1.0000000
N2   N   0.111086728088297   0.888891137523504   0.122524916262562   1.0000000
N2   N   0.777736507000490   0.388847854636164   0.627979005925796   1.0000000
N2   N   0.444465487010232   0.888899410171636   0.122565040127009   1.0000000
N2   N   0.277682467834678   0.388838073367188   0.122376704301970   1.0000000
N2   N   0.277766596139735   0.555540442222882   0.122480674572961   1.0000000
N2   N   0.611080736233545   0.388830260256910   0.122133991671840   1.0000000
N2   N   0.777760338691485   0.888905283773123   0.121592267994969   1.0000000
N2   N   0.944405144438211   0.388852908508873   0.121867791822097   1.0000000
N2   N   0.111086728088297   0.555528923898092   0.627475083737930   1.0000000
N2   N   0.277766596139735   0.055559487250453   0.627519325427312   1.0000000
N2   N   0.777721083919073   0.555527208625744   0.627535211679478   1.0000000
N2   N   0.611121461138787   0.055540757174444   0.627978400474680   1.0000000
N2   N   0.944393994496046   0.055537553867263   0.628652616631870   1.0000000
N2   N   0.056049490069683   0.111236868060898   0.375000000000000   1.0000000
N2   N   0.556668202628920   0.617560961961128   0.375000000000000   1.0000000
N2   N   0.387866522261723   0.105466009163585   0.375000000000000   1.0000000
N2   N   0.888767438170951   0.611050385751668   0.375000000000000   1.0000000
N2   N   0.723207921308831   0.110954270001140   0.375000000000000   1.0000000
N2   N   0.055743830931142   0.777868799076976   0.875000000000000   1.0000000
N2   N   0.389063914471473   0.777864793801080   0.875000000000000   1.0000000
N2   N   0.222418903933125   0.277876118633011   0.875000000000000   1.0000000
N2   N   0.722410397509895   0.777858609253231   0.875000000000000   1.0000000
N2   N   0.555736363318518   0.277878189007722   0.875000000000000   1.0000000
N2   N   0.889088657852935   0.277887967907321   0.875000000000000   1.0000000
N2   N   0.221096620545315   0.777214976939271   0.375000000000000   1.0000000
N2   N   0.056049490069683   0.278145955342155   0.375000000000000   1.0000000
N2   N   0.384907849528081   0.266358579734074   0.375000000000000   1.0000000
N2   N   0.555883276313742   0.780749609300471   0.375000000000000   1.0000000
N2   N   0.889997972930064   0.778947109468211   0.375000000000000   1.0000000
N2   N   0.723671239638429   0.276772119855584   0.375000000000000   1.0000000
N2   N   0.055750270767643   0.944534160611537   0.875000000000000   1.0000000
N2   N   0.389063914471473   0.944532454003954   0.875000000000000   1.0000000
N2   N   0.222414424653005   0.444544121405030   0.875000000000000   1.0000000
N2   N   0.555741497633736   0.444537415483532   0.875000000000000   1.0000000
N2   N   0.722409712836531   0.944532376482157   0.875000000000000   1.0000000
N2   N   0.889085254964664   0.444551760077708   0.875000000000000   1.0000000
N2   N   0.055002222332753   0.444871828386327   0.375000000000000   1.0000000
N2   N   0.220955544686043   0.942336645492630   0.375000000000000   1.0000000
N2   N   0.555776135059911   0.944554734197655   0.375000000000000   1.0000000
N2   N   0.384907849528094   0.451882603126926   0.375000000000000   1.0000000
N2   N   0.889866145797540   0.945400471667614   0.375000000000000   1.0000000
N2   N   0.725391246124766   0.443900563182672   0.375000000000000   1.0000000
N2   N   0.222403279130500   0.611205472351694   0.875000000000000   1.0000000
N2   N   0.055757624220577   0.111206749488255   0.875000000000000   1.0000000
N2   N   0.555736363318518   0.611191507643259   0.875000000000000   1.0000000
N2   N   0.389067919341221   0.111202367315034   0.875000000000000   1.0000000
N2   N   0.889084152218492   0.611208742776638   0.875000000000000   1.0000000
N2   N   0.054823101884197   0.611084957497622   0.375000000000000   1.0000000
N2   N   0.722409712836531   0.111210669689024   0.875000000000000   1.0000000
N2   N   0.219829354289162   0.107499741098512   0.375000000000000   1.0000000
N2   N   0.387866522261723   0.615733846431172   0.375000000000000   1.0000000
N2   N   0.725391246124766   0.614824016275736   0.375000000000000   1.0000000
N2   N   0.555883276313742   0.108467000347615   0.375000000000000   1.0000000
N2   N   0.389067919341221   0.611198885359330   0.875000000000000   1.0000000
N2   N   0.889866408757978   0.111599871045657   0.375000000000000   1.0000000
N2   N   0.222400026300302   0.777866679817031   0.875000000000000   1.0000000
N2   N   0.055757624220577   0.277884208065598   0.875000000000000   1.0000000
N2   N   0.389075288979282   0.277870200046592   0.875000000000000   1.0000000
N2   N   0.555732334169671   0.777858871661691   0.875000000000000   1.0000000
N2   N   0.889085254964664   0.777866828220557   0.875000000000000   1.0000000
N2   N   0.722410397509895   0.277885121590156   0.875000000000000   1.0000000
N2   N   0.054823101884210   0.777071477719921   0.375000000000000   1.0000000
N2   N   0.388086762218312   0.778951520554527   0.375000000000000   1.0000000
N2   N   0.222755711168566   0.278044522251021   0.375000000000000   1.0000000
N2   N   0.723671239638429   0.780232453116348   0.375000000000000   1.0000000
N2   N   0.556668202628920   0.272440574000746   0.375000000000000   1.0000000
N2   N   0.889866145797540   0.277799007463365   0.375000000000000   1.0000000
N2   N   0.055750270767643   0.444549443489057   0.875000000000000   1.0000000
N2   N   0.222403279130500   0.944531140111930   0.875000000000000   1.0000000
N2   N   0.555730821832393   0.944532077582583   0.875000000000000   1.0000000
N2   N   0.389075288979282   0.444538422266007   0.875000000000000   1.0000000
N2   N   0.889088657852935   0.944534023279185   0.875000000000000   1.0000000
N2   N   0.055002222332737   0.943463727279287   0.375000000000000   1.0000000
N2   N   0.722412163496100   0.444547151198960   0.875000000000000   1.0000000
N2   N   0.388086762218312   0.942468574995859   0.375000000000000   1.0000000
N2   N   0.219829354289231   0.445662946524091   0.375000000000000   1.0000000
N2   N   0.220955544686043   0.611952232527373   0.375000000000000   1.0000000
N2   N   0.723207921308832   0.945586984640356   0.375000000000000   1.0000000
N2   N   0.889997972930064   0.444384196795696   0.375000000000000   1.0000000
N2   N   0.055743830931142   0.611208365187098   0.875000000000000   1.0000000
N2   N   0.222414424653005   0.111203636581312   0.875000000000000   1.0000000
N2   N   0.722412163496100   0.611198345630812   0.875000000000000   1.0000000
N2   N   0.555732334169671   0.111206795841569   0.875000000000000   1.0000000
N2   N   0.889090353104827   0.111211843218857   0.875000000000000   1.0000000
B2   B   0.111080247772097   0.054794893529470   0.375000000000000   1.0000000
B2   B   0.614617931472871   0.564848431470026   0.375000000000000   1.0000000
B2   B   0.444055911431877   0.053083374368223   0.375000000000000   1.0000000
B2   B   0.944104099496965   0.555370501266137   0.375000000000000   1.0000000
B2   B   0.779090745572823   0.056212039452963   0.375000000000000   1.0000000
B2   B   0.111308400000381   0.722320866667248   0.875000000000000   1.0000000
B2   B   0.444599455540389   0.722229323487750   0.875000000000000   1.0000000
B2   B   0.278059446054261   0.222399766771656   0.875000000000000   1.0000000
B2   B   0.777915448237926   0.722244570090284   0.875000000000000   1.0000000
B2   B   0.611233412203380   0.222366858943578   0.875000000000000   1.0000000
B2   B   0.944705038516692   0.222358337433589   0.875000000000000   1.0000000
B2   B   0.277038775947117   0.722383629261275   0.375000000000000   1.0000000
B2   B   0.113917329161872   0.223625331247672   0.375000000000000   1.0000000
B2   B   0.441076473943413   0.217966527255497   0.375000000000000   1.0000000
B2   B   0.611631075839672   0.725640114754920   0.375000000000000   1.0000000
B2   B   0.944104099496965   0.722066931565068   0.375000000000000   1.0000000
B2   B   0.778994327175658   0.221963921319870   0.375000000000000   1.0000000
B2   B   0.111333482461418   0.889019239156663   0.875000000000000   1.0000000
B2   B   0.444602082852421   0.888967708093183   0.875000000000000   1.0000000
B2   B   0.278059446054261   0.388993012615968   0.875000000000000   1.0000000
B2   B   0.611202024844518   0.388990930452648   0.875000000000000   1.0000000
B2   B   0.777955770278726   0.888938067236978   0.875000000000000   1.0000000
B2   B   0.944662197349292   0.389009738426418   0.875000000000000   1.0000000
B2   B   0.111080247772096   0.389618687575963   0.375000000000000   1.0000000
B2   B   0.277038775947117   0.887988480018713   0.375000000000000   1.0000000
B2   B   0.611814898413701   0.890225980395482   0.375000000000000   1.0000000
B2   B   0.945020853687187   0.889485289384624   0.375000000000000   1.0000000
B2   B   0.779453987596401   0.388089959111461   0.375000000000000   1.0000000
B2   B   0.278002345516280   0.555605143839443   0.875000000000000   1.0000000
B2   B   0.111393951621026   0.055718955859029   0.875000000000000   1.0000000
B2   B   0.611202024844518   0.555544427724972   0.875000000000000   1.0000000
B2   B   0.444599455540389   0.055703465386696   0.875000000000000   1.0000000
B2   B   0.944621703342904   0.555651021230307   0.875000000000000   1.0000000
B2   B   0.110545107869934   0.555738990924801   0.375000000000000   1.0000000
B2   B   0.777975701751441   0.055654517542402   0.875000000000000   1.0000000
B2   B   0.277105851577184   0.053993983440034   0.375000000000000   1.0000000
B2   B   0.441076473943413   0.556443280021004   0.375000000000000   1.0000000
B2   B   0.777313219812805   0.555323276572974   0.375000000000000   1.0000000
B2   B   0.611814898413701   0.054922251350941   0.375000000000000   1.0000000
B2   B   0.444598241264857   0.555540436438141   0.875000000000000   1.0000000
B2   B   0.946031943150486   0.056585471737995   0.375000000000000   1.0000000
B2   B   0.277967587734494   0.722290028141061   0.875000000000000   1.0000000
B2   B   0.111420526691066   0.222376930012236   0.875000000000000   1.0000000
B2   B   0.444598241264857   0.222391138160402   0.875000000000000   1.0000000
B2   B   0.611233412203380   0.722199886593531   0.875000000000000   1.0000000
B2   B   0.944621703342904   0.722304015445889   0.875000000000000   1.0000000
B2   B   0.777955770278726   0.222351036374437   0.875000000000000   1.0000000
B2   B   0.110389849617056   0.721861591475137   0.375000000000000   1.0000000
B2   B   0.444055911431877   0.724305870397131   0.375000000000000   1.0000000
B2   B   0.280373085508849   0.221493911856527   0.375000000000000   1.0000000
B2   B   0.779453987596401   0.724697361817674   0.375000000000000   1.0000000
B2   B   0.611631075839678   0.219324294418223   0.375000000000000   1.0000000
B2   B   0.946031943150486   0.222779804745477   0.375000000000000   1.0000000
B2   B   0.111393951621026   0.389008329095463   0.875000000000000   1.0000000
B2   B   0.277967587734494   0.889010892926994   0.875000000000000   1.0000000
B2   B   0.611261510394988   0.888928949924746   0.875000000000000   1.0000000
B2   B   0.444611217280730   0.388972275307346   0.875000000000000   1.0000000
B2   B   0.944662197349292   0.888985792256759   0.875000000000000   1.0000000
B2   B   0.110545107869934   0.888139450278121   0.375000000000000   1.0000000
B2   B   0.777915448237926   0.389004211481085   0.875000000000000   1.0000000
B2   B   0.444316111226515   0.888824722280159   0.375000000000000   1.0000000
B2   B   0.280373085508849   0.392212506985582   0.375000000000000   1.0000000
B2   B   0.277105851577184   0.556445201470617   0.375000000000000   1.0000000
B2   B   0.614617931472871   0.383102833335482   0.375000000000000   1.0000000
B2   B   0.778994327175658   0.890363739189940   0.375000000000000   1.0000000
B2   B   0.945020853687187   0.388868897635756   0.375000000000000   1.0000000
B2   B   0.111333482461431   0.555647576638658   0.875000000000000   1.0000000
B2   B   0.278002345516280   0.055730535010486   0.875000000000000   1.0000000
B2   B   0.777895567628426   0.555614450481659   0.875000000000000   1.0000000
B2   B   0.611261510394988   0.055665893803890   0.875000000000000   1.0000000
B2   B   0.944705038516692   0.055680034416533   0.875000000000000   1.0000000
B2   B   0.055690976885317   0.111248535719214   0.122100506293115   1.0000000
B2   B   0.555319887254382   0.610832471342019   0.123093769479609   1.0000000
B2   B   0.388979497324370   0.111446035619706   0.123327305174010   1.0000000
B2   B   0.888662804210928   0.610998068772902   0.122952833969651   1.0000000
B2   B   0.722182413117714   0.111100520708440   0.122072206614577   1.0000000
B2   B   0.055541862253949   0.777833115855962   0.626922612754648   1.0000000
B2   B   0.388960089114975   0.777714463863089   0.626953904054125   1.0000000
B2   B   0.222464945966117   0.277899139649326   0.626645847681397   1.0000000
B2   B   0.722050364695530   0.777662259788382   0.627749298795901   1.0000000
B2   B   0.555319887254382   0.277820749246144   0.626906230520837   1.0000000
B2   B   0.888871113294146   0.277722290143686   0.628062701706811   1.0000000
B2   B   0.222295181018801   0.777814257175499   0.123277139622064   1.0000000
B2   B   0.055690976885318   0.277775774499435   0.122100506293109   1.0000000
B2   B   0.388941272401670   0.278050494899647   0.124797219319221   1.0000000
B2   B   0.555505164035168   0.777647710746356   0.122585779372664   1.0000000
B2   B   0.888744684724946   0.777743939151903   0.122523082980418   1.0000000
B2   B   0.722050364695530   0.277721438240688   0.122250701204335   1.0000000
B2   B   0.055624006651034   0.944615890310953   0.627505005174396   1.0000000
B2   B   0.388960089114975   0.944578958585493   0.626953904054125   1.0000000
B2   B   0.222425844041345   0.444287634213897   0.626852759667301   1.0000000
B2   B   0.555041877559168   0.444187605446248   0.625523601571982   1.0000000
B2   B   0.722182413117714   0.944415225741823   0.627927793385000   1.0000000
B2   B   0.888744684724946   0.444334078906704   0.627476917019177   1.0000000
B2   B   0.055624006651035   0.444341449673461   0.122494994825637   1.0000000
B2   B   0.222345525541099   0.944696863482238   0.123098625475823   1.0000000
B2   B   0.555560114908366   0.944446724121486   0.122589766898318   1.0000000
B2   B   0.388941272401671   0.444224110834929   0.124797219319239   1.0000000
B2   B   0.888871113294146   0.944482156483173   0.121937298293067   1.0000000
B2   B   0.721804354967299   0.444261072986200   0.122787538656901   1.0000000
B2   B   0.222345525541099   0.610981995392770   0.626901374523744   1.0000000
B2   B   0.055690976885317   0.111248535719214   0.627899493707152   1.0000000
B2   B   0.555319887254382   0.610832471342019   0.626906230520837   1.0000000
B2   B   0.388979497324370   0.111446035619706   0.626672694825948   1.0000000
B2   B   0.888662804210928   0.610998068772902   0.627047166030770   1.0000000
B2   B   0.055541862253949   0.611042079731526   0.123077387245249   1.0000000
B2   B   0.722182413117714   0.111100520708440   0.627927793385000   1.0000000
B2   B   0.222425844041345   0.111471543160595   0.123147240332946   1.0000000
B2   B   0.388979497324370   0.610866795037713   0.123327305174010   1.0000000
B2   B   0.721804354967298   0.610876615314600   0.122787538656882   1.0000000
B2   B   0.555505164035168   0.111190786622537   0.122585779372560   1.0000000
B2   B   0.388979497324370   0.610866795037713   0.626672694825948   1.0000000
B2   B   0.888923868242587   0.111128600788068   0.121754715166614   1.0000000
B2   B   0.222295181018801   0.777814257175499   0.626722860378027   1.0000000
B2   B   0.055690976885317   0.277775774499435   0.627899493707152   1.0000000
B2   B   0.388941272401665   0.278050494899647   0.625202780680742   1.0000000
B2   B   0.555505164035168   0.777647710746356   0.627414220627418   1.0000000
B2   B   0.888744684724946   0.777743939151903   0.627476917019177   1.0000000
B2   B   0.722050364695530   0.277721438240688   0.627749298795901   1.0000000
B2   B   0.055541862253949   0.777833115855962   0.123077387245249   1.0000000
B2   B   0.388960089114975   0.777714463863089   0.123046095945424   1.0000000
B2   B   0.222464945966117   0.277899139649326   0.123354152319088   1.0000000
B2   B   0.722050364695530   0.777662259788382   0.122250701204335   1.0000000
B2   B   0.555319887254382   0.277820749246144   0.123093769479597   1.0000000
B2   B   0.888871113294146   0.277722290143682   0.121937298293067   1.0000000
B2   B   0.055624006651034   0.444341449673461   0.627505005174372   1.0000000
B2   B   0.222345525541099   0.944696863482238   0.626901374523744   1.0000000
B2   B   0.555560114908366   0.944446724121486   0.627410233102203   1.0000000
B2   B   0.388941272401671   0.444224110834929   0.625202780680742   1.0000000
B2   B   0.888871113294146   0.944482156483173   0.628062701706811   1.0000000
B2   B   0.055624006651034   0.944615890310953   0.122494994825644   1.0000000
B2   B   0.721804354967299   0.444261072986200   0.627212461343067   1.0000000
B2   B   0.388960089114975   0.944578958585493   0.123046095945424   1.0000000
B2   B   0.222425844041345   0.444287634213897   0.123147240333019   1.0000000
B2   B   0.222345525541099   0.610981995392770   0.123098625475823   1.0000000
B2   B   0.555041877559168   0.444187605446248   0.124476398428285   1.0000000
B2   B   0.722182413117714   0.944415225741823   0.122072206614577   1.0000000
B2   B   0.888744684724946   0.444334078906704   0.122523082980418   1.0000000
B2   B   0.055541862253952   0.611042079731526   0.626922612754648   1.0000000
B2   B   0.222425844041345   0.111471543160594   0.626852759667301   1.0000000
B2   B   0.721804354967299   0.610876615314600   0.627212461343067   1.0000000
B2   B   0.555505164035168   0.111190786622537   0.627414220627418   1.0000000
B2   B   0.888923868242587   0.111128600788068   0.628245284833628   1.0000000


