data_1
_audit_creation_method   'vasp2cif'
_cell_length_a    17.52789999999977
_cell_length_b    17.52789999999977
_cell_length_c    15.0
_cell_angle_alpha    90.0
_cell_angle_beta    90.0
_cell_angle_gamma    119.99999999999916

_symmetry_space_group_name_H-M    'P 1'
loop_
_atom_site_label
_atom_site_type_symbol
_atom_site_fract_x
_atom_site_fract_y
_atom_site_fract_z
_atom_site_occupancy
B2   B   0.904708989142164   0.952328522470302   0.111021743933003   1.0000000
B2   B   0.904760518682482   0.095241502513515   0.111038639589309   1.0000000
B2   B   0.904746242088376   0.238084768646550   0.111038960695743   1.0000000
B2   B   0.904754488388469   0.380954799828754   0.111017152027946   1.0000000
B2   B   0.904751533314807   0.523835405631918   0.111016372038534   1.0000000
B2   B   0.904937929539492   0.666745606191916   0.111039185444243   1.0000000
B2   B   0.904800593777494   0.809547403634307   0.111038373257260   1.0000000
B2   B   0.047621153615432   0.952380867580571   0.111021187427135   1.0000000
B2   B   0.047673498725702   0.095293032053832   0.111021743933003   1.0000000
B2   B   0.047628047543250   0.238105980757976   0.111017539200995   1.0000000
B2   B   0.047623013572465   0.380954814304279   0.111027348730375   1.0000000
B2   B   0.047671718790718   0.523818339210706   0.111023234705876   1.0000000
B2   B   0.047654117042102   0.666688881802978   0.111027001289972   1.0000000
B2   B   0.047666869905109   0.809546961686420   0.111017598226045   1.0000000
B2   B   0.190455059509584   0.952335151290895   0.111017598226045   1.0000000
B2   B   0.190454617561697   0.095201427418502   0.111038373257260   1.0000000
B2   B   0.190664073976777   0.238367775248721   0.111017280961676   1.0000000
B2   B   0.190435372482254   0.380943961324937   0.111015163207981   1.0000000
B2   B   0.190721139166378   0.523825323240393   0.111044000699934   1.0000000
B2   B   0.190448769866053   0.666674079409873   0.111045876750362   1.0000000
B2   B   0.190474352666288   0.809527668529716   0.111017132540287   1.0000000
B2   B   0.333313139394020   0.952347904153901   0.111027001289972   1.0000000
B2   B   0.333256415005083   0.095064091656504   0.111039185444243   1.0000000
B2   B   0.333115739089431   0.237691663161496   0.111027146530839   1.0000000
B2   B   0.333599731996298   0.381426849370561   0.111025195609820   1.0000000
B2   B   0.333815508588472   0.524206911757652   0.111030795913448   1.0000000
B2   B   0.333243580735242   0.666758440461756   0.111046062848978   1.0000000
B2   B   0.333327941787125   0.809553251329951   0.111045876750362   1.0000000
B2   B   0.476183681986292   0.952330302405285   0.111023234705876   1.0000000
B2   B   0.476166615565081   0.095250487881189   0.111016372038534   1.0000000
B2   B   0.475980425908200   0.237890815948088   0.111033615825262   1.0000000
B2   B   0.474269577843677   0.377936953226505   0.111028906375399   1.0000000
B2   B   0.475795109439346   0.666186512608527   0.111030795913448   1.0000000
B2   B   0.476176697956605   0.809280882029625   0.111044000699934   1.0000000
B2   B   0.619047206891725   0.952379007623538   0.111027348730375   1.0000000
B2   B   0.619047221367249   0.095247532807528   0.111017152027946   1.0000000
B2   B   0.619096523023488   0.238059780682327   0.111021769113886   1.0000000
B2   B   0.619318319737851   0.380683701458152   0.111015787988253   1.0000000
B2   B   0.622065067969498   0.525732443353321   0.111028906375399   1.0000000
B2   B   0.618575171825442   0.666402289200701   0.111025195609820   1.0000000
B2   B   0.619058059871067   0.809566648713750   0.111015163207981   1.0000000
B2   B   0.761896040438027   0.952373973652753   0.111017539200995   1.0000000
B2   B   0.761917252549453   0.095255779107621   0.111038960695743   1.0000000
B2   B   0.761900370166607   0.238101651029396   0.111043969876883   1.0000000
B2   B   0.761942240513677   0.380905498172515   0.111021769113886   1.0000000
B2   B   0.762111205247916   0.524021595288798   0.111033615825262   1.0000000
B2   B   0.762310358034507   0.666886282107567   0.111027146530839   1.0000000
B2   B   0.761634245947283   0.809337947219227   0.111017280961676   1.0000000
C2   C   0.474640964452269   0.525361056744730   0.111140601400365   1.0000000
N2   N   0.952335093242766   0.904697843124271   0.111012649965780   1.0000000
N2   N   0.952414146475326   0.047587255442680   0.111013150948626   1.0000000
N2   N   0.952435425686230   0.190484771865158   0.111016843731380   1.0000000
N2   N   0.952432416671255   0.333394156654669   0.111015155793947   1.0000000
N2   N   0.952368681676500   0.476245341904641   0.111000774037342   1.0000000
N2   N   0.952320959950725   0.619047968361551   0.111014046304551   1.0000000
N2   N   0.952317804277776   0.761867764499881   0.111016277149061   1.0000000
N2   N   0.095231984894946   0.904769417023053   0.111001722419964   1.0000000
N2   N   0.095303558793728   0.047666308675240   0.111012649965780   1.0000000
N2   N   0.095511053184125   0.190676630752002   0.111001960583012   1.0000000
N2   N   0.095380316257944   0.333418776352343   0.111006618992195   1.0000000
N2   N   0.095482919458212   0.476229180039026   0.111013219773054   1.0000000
N2   N   0.095238093779617   0.619046909576149   0.111015770334188   1.0000000
N2   N   0.095221890796535   0.761907173167456   0.111006817073132   1.0000000
N2   N   0.238094228750549   0.904779511121464   0.111006817073132   1.0000000
N2   N   0.238133637418125   0.047683597640230   0.111016277149061   1.0000000
N2   N   0.238322728125513   0.190709101601816   0.111012627767390   1.0000000
N2   N   0.238774616338458   0.334054231300534   0.111002400932688   1.0000000
N2   N   0.238869213079425   0.476170585105734   0.111012637128240   1.0000000
N2   N   0.238166370739491   0.619005955764093   0.111024834439881   1.0000000
N2   N   0.238099903560940   0.761901498357065   0.111014120550345   1.0000000
N2   N   0.380954492341850   0.904763308138382   0.111015770334188   1.0000000
N2   N   0.380953433556448   0.047680441967281   0.111014046304551   1.0000000
N2   N   0.381021224667002   0.190689097372704   0.111011919329266   1.0000000
N2   N   0.381289904245366   0.333878777166194   0.110994913299454   1.0000000
N2   N   0.383316523612245   0.477098248984318   0.110970691548311   1.0000000
N2   N   0.381034100529244   0.618967301388754   0.111017384829804   1.0000000
N2   N   0.380995446153905   0.761835031178515   0.111024834439881   1.0000000
N2   N   0.523772221877971   0.904518482459787   0.111013219773054   1.0000000
N2   N   0.523756060012356   0.047632720241506   0.111000774037342   1.0000000
N2   N   0.523706571615107   0.190748704928840   0.111009452748001   1.0000000
N2   N   0.523818176219995   0.334294076393139   0.110998486213027   1.0000000
N2   N   0.522903152932679   0.616684878305753   0.110970691548311   1.0000000
N2   N   0.523830816811263   0.761132188838580   0.111012637128240   1.0000000
N2   N   0.666582625564653   0.904621085660055   0.111006618992195   1.0000000
N2   N   0.666607245262327   0.047568985246751   0.111015155793947   1.0000000
N2   N   0.666590924935656   0.190470888202789   0.111015767839407   1.0000000
N2   N   0.666605063294697   0.333396338622300   0.111005910811726   1.0000000
N2   N   0.665707325523858   0.476183225697002   0.110998486213027   1.0000000
N2   N   0.666122624750803   0.618711497672633   0.110994913299454   1.0000000
N2   N   0.665947170616463   0.761226785579547   0.111002400932688   1.0000000
N2   N   0.809324771165996   0.904490348733873   0.111001960583012   1.0000000
N2   N   0.809516630052841   0.047565976231776   0.111016843731380   1.0000000
N2   N   0.809515901715627   0.190485500202372   0.111018565394217   1.0000000
N2   N   0.809530513715209   0.333410476981341   0.111015767839407   1.0000000
N2   N   0.809252696989159   0.476294830301890   0.111009452748001   1.0000000
N2   N   0.809312304545295   0.618980177250997   0.111011919329266   1.0000000
N2   N   0.809292300316183   0.761678673792493   0.111012627767390   1.0000000
O2   O   0.522912087422619   0.477089314494377   0.111069512330282   1.0000000


