data_1
_audit_creation_method   'vasp2cif'
_cell_length_a    17.52789999999977
_cell_length_b    17.52789999999977
_cell_length_c    15.0
_cell_angle_alpha    90.0
_cell_angle_beta    90.0
_cell_angle_gamma    119.99999999999916

_symmetry_space_group_name_H-M    'P 1'
loop_
_atom_site_label
_atom_site_type_symbol
_atom_site_fract_x
_atom_site_fract_y
_atom_site_fract_z
_atom_site_occupancy
B2   B   0.905835226984718   0.954159090011219   0.111032151922603   1.0000000
B2   B   0.905632793540987   0.096904938040561   0.111054102836787   1.0000000
B2   B   0.905100900953841   0.239249788347892   0.111097932951801   1.0000000
B2   B   0.903653831405492   0.381272766026488   0.110995929563810   1.0000000
B2   B   0.901601369154463   0.523203322614023   0.111007409094316   1.0000000
B2   B   0.903078893493673   0.665861833013272   0.111076964550821   1.0000000
B2   B   0.904722220002192   0.809991319518098   0.111066249372515   1.0000000
B2   B   0.047204917607643   0.951887206249715   0.111000581427557   1.0000000
B2   B   0.048682843296898   0.096349359905852   0.111007363963261   1.0000000
B2   B   0.049226426198512   0.239276537822167   0.111060328785012   1.0000000
B2   B   0.048724955242474   0.381220221859453   0.111032347664605   1.0000000
B2   B   0.047100033754349   0.522969295227990   0.110994695865875   1.0000000
B2   B   0.046204492171393   0.665219220394246   0.111013474039669   1.0000000
B2   B   0.046398614138854   0.808058372405391   0.111015052658564   1.0000000
B2   B   0.188887159386098   0.949776439625122   0.111040496814025   1.0000000
B2   B   0.189601212265825   0.093321135531996   0.111047959577341   1.0000000
B2   B   0.192866954665649   0.238938591219629   0.111026660902803   1.0000000
B2   B   0.194149847111640   0.381536719790610   0.111053109006798   1.0000000
B2   B   0.192815814501716   0.523012470684155   0.111036744754691   1.0000000
B2   B   0.189819672548566   0.665118265609671   0.111040352476919   1.0000000
B2   B   0.189369435687068   0.807453079007810   0.111010839802667   1.0000000
B2   B   0.332098842442074   0.949752315233369   0.111051285099561   1.0000000
B2   B   0.330875765526644   0.090667802862653   0.111092732323826   1.0000000
B2   B   0.332556834692702   0.233079797976725   0.111031174510076   1.0000000
B2   B   0.341309206438864   0.383290775022784   0.111033871305117   1.0000000
B2   B   0.340216394183818   0.524330061962122   0.111037524896081   1.0000000
B2   B   0.333119883175938   0.665812751949362   0.111085474232901   1.0000000
B2   B   0.332797655516639   0.807983734543932   0.111056635284212   1.0000000
B2   B   0.475750971934896   0.951609825851029   0.111053615795732   1.0000000
B2   B   0.474756896430877   0.093024875332305   0.111047810500147   1.0000000
B2   B   0.471687297430339   0.232777021977157   0.110965444589724   1.0000000
B2   B   0.475538210483636   0.667475820964129   0.110995075165584   1.0000000
B2   B   0.476424614029845   0.809761416821568   0.111036004546002   1.0000000
B2   B   0.619308319442820   0.953561790544986   0.111023388462812   1.0000000
B2   B   0.618596088029254   0.095897794351995   0.111025351080773   1.0000000
B2   B   0.617175902660981   0.238344821534199   0.110994507325233   1.0000000
B2   B   0.613727848330048   0.382209419017552   0.110962051370454   1.0000000
B2   B   0.610069966325544   0.528790882101995   0.111029508088395   1.0000000
B2   B   0.623343470444614   0.671945609465497   0.110974956510935   1.0000000
B2   B   0.619618267288426   0.811295462872304   0.110966454731188   1.0000000
B2   B   0.762631206099603   0.954228771989443   0.111031600253893   1.0000000
B2   B   0.762103581399538   0.096714273665945   0.111074516326408   1.0000000
B2   B   0.761047777535163   0.239070418315352   0.111068105046863   1.0000000
B2   B   0.758753478491677   0.381402766931189   0.110984974872017   1.0000000
B2   B   0.755503254902813   0.523836724313339   0.111064395005989   1.0000000
B2   B   0.761974095631084   0.667923936139005   0.111077778816210   1.0000000
B2   B   0.763759667276588   0.812397743910855   0.111029958707560   1.0000000
C2   C   0.489979064430177   0.528843055794071   0.111014796011204   1.0000000
C2   C   0.524841543359562   0.617292523282613   0.111031027821141   1.0000000
N2   N   0.952329246435559   0.905217334971810   0.111002866514252   1.0000000
N2   N   0.953445971891420   0.049329425804904   0.111004193878971   1.0000000
N2   N   0.953496450127514   0.192120660545075   0.111064400443880   1.0000000
N2   N   0.952675506196682   0.334359774897571   0.111026960799262   1.0000000
N2   N   0.950848398265333   0.476258356142705   0.110963386832620   1.0000000
N2   N   0.950520284212099   0.618192908906655   0.111018264344503   1.0000000
N2   N   0.951178215318446   0.761085251011830   0.111042176421467   1.0000000
N2   N   0.093919126372101   0.903154905899826   0.110993673854016   1.0000000
N2   N   0.094829689456078   0.047106344933657   0.110981754601292   1.0000000
N2   N   0.097109865968363   0.191799411539084   0.111008103615986   1.0000000
N2   N   0.097823992189133   0.334443995534797   0.111030507210694   1.0000000
N2   N   0.096511321228934   0.476161426206986   0.110991702225701   1.0000000
N2   N   0.094378800050276   0.617950285465348   0.111002146461071   1.0000000
N2   N   0.093984024290948   0.760285836828628   0.110986447854844   1.0000000
N2   N   0.236827853735257   0.902446940110142   0.111009891749109   1.0000000
N2   N   0.236142562247656   0.044586507282737   0.111055229402009   1.0000000
N2   N   0.237374811449527   0.188393046025591   0.111019602951993   1.0000000
N2   N   0.243207619885968   0.334840132767970   0.111038829970518   1.0000000
N2   N   0.243069847272601   0.476450775106428   0.111032610201023   1.0000000
N2   N   0.238173466782210   0.618005615948624   0.111055266457060   1.0000000
N2   N   0.237389027224219   0.760202805254981   0.111021377402205   1.0000000
N2   N   0.380332588764746   0.903078667800027   0.111028151234418   1.0000000
N2   N   0.379514393125975   0.044541523117122   0.111053881386283   1.0000000
N2   N   0.377965443985292   0.184727213455871   0.111072942884920   1.0000000
N2   N   0.375311078909957   0.325433211775170   0.110873978472855   1.0000000
N2   N   0.394043542230665   0.478622598682307   0.110999185770376   1.0000000
N2   N   0.381365000759005   0.618806103340833   0.111020799702784   1.0000000
N2   N   0.380873803720236   0.761023333428553   0.111060175540865   1.0000000
N2   N   0.523960281668947   0.905029160631428   0.111033582205763   1.0000000
N2   N   0.523284514837311   0.046819230443345   0.111022911864169   1.0000000
N2   N   0.522162080090778   0.188095451953759   0.110998570095610   1.0000000
N2   N   0.521758942432118   0.325085122356665   0.110644482903433   1.0000000
N2   N   0.524248434068692   0.762976061198388   0.110946397266049   1.0000000
N2   N   0.667316897745778   0.906495795293966   0.110997592848691   1.0000000
N2   N   0.666778070069353   0.048883332385115   0.111019841939906   1.0000000
N2   N   0.665728087228449   0.191357301694199   0.111001093192673   1.0000000
N2   N   0.663081610665528   0.334160392807708   0.110965875254406   1.0000000
N2   N   0.656268055716022   0.477559099227250   0.111053322270367   1.0000000
N2   N   0.667303528694550   0.621575435000993   0.110996037429444   1.0000000
N2   N   0.669266409081838   0.765780953904920   0.110936031931916   1.0000000
N2   N   0.810937148201620   0.907219878308489   0.111026125960927   1.0000000
N2   N   0.810192341635145   0.049448710442593   0.111045490538963   1.0000000
N2   N   0.809523091713033   0.191963917345459   0.111081198287723   1.0000000
N2   N   0.807774094038925   0.334353425252265   0.110998622595723   1.0000000
N2   N   0.804838284034072   0.476542498921153   0.110996875651867   1.0000000
N2   N   0.807314059976197   0.618695929641526   0.111085509519398   1.0000000
N2   N   0.809865906928247   0.763165341529691   0.111063604450513   1.0000000


