data_1
_audit_creation_method   'vasp2cif'
_cell_length_a    17.52789999999977
_cell_length_b    17.52789999999977
_cell_length_c    15.0
_cell_angle_alpha    90.0
_cell_angle_beta    90.0
_cell_angle_gamma    119.99999999999916

_symmetry_space_group_name_H-M    'P 1'
loop_
_atom_site_label
_atom_site_type_symbol
_atom_site_fract_x
_atom_site_fract_y
_atom_site_fract_z
_atom_site_occupancy
B2   B   0.903499725957165   0.950968091537898   0.110945558024949   1.0000000
B2   B   0.904689007461207   0.094055493496140   0.111050651650594   1.0000000
B2   B   0.905358260784767   0.236748542580891   0.111018181154818   1.0000000
B2   B   0.905490782715182   0.379587866027186   0.110935039911767   1.0000000
B2   B   0.905320475741768   0.522700102196401   0.110999598523649   1.0000000
B2   B   0.904461626460379   0.665769077456792   0.111001024112713   1.0000000
B2   B   0.903114501973049   0.808188740484488   0.110900057062529   1.0000000
B2   B   0.047096284991588   0.952794554005796   0.110943180476906   1.0000000
B2   B   0.048661216221712   0.096266252209589   0.110973924646605   1.0000000
B2   B   0.048793341451992   0.238264458032341   0.110963764409902   1.0000000
B2   B   0.048225047953285   0.380535208723818   0.110944313392935   1.0000000
B2   B   0.047014755029428   0.523558709341572   0.110938522741538   1.0000000
B2   B   0.046418434587860   0.666781137230660   0.110993374139034   1.0000000
B2   B   0.046541926198562   0.809744913725332   0.110932721316372   1.0000000
B2   B   0.189959926620735   0.953460032437638   0.110948902895824   1.0000000
B2   B   0.191621412176757   0.097330968337605   0.110989076737947   1.0000000
B2   B   0.194353103109648   0.242188620530255   0.111099320495995   1.0000000
B2   B   0.192015818294407   0.382155253936789   0.111098280407052   1.0000000
B2   B   0.188840171822685   0.524665498186251   0.110983332945215   1.0000000
B2   B   0.187763935868905   0.667627725231479   0.111078473237801   1.0000000
B2   B   0.189064743147671   0.810486251288185   0.110960046875059   1.0000000
B2   B   0.332581449743799   0.953278379667616   0.110964298064318   1.0000000
B2   B   0.333697928674373   0.096427960368658   0.111058202029390   1.0000000
B2   B   0.336312324766802   0.241647271014312   0.111172848175034   1.0000000
B2   B   0.341770135946505   0.389939155838819   0.110675712317256   1.0000000
B2   B   0.330441844813566   0.527019442588051   0.110843885902440   1.0000000
B2   B   0.328215208212868   0.669118846655175   0.110902436844132   1.0000000
B2   B   0.331455866012772   0.810903578416636   0.111069732243628   1.0000000
B2   B   0.475345418903844   0.951451460296980   0.110974762197116   1.0000000
B2   B   0.476244754612977   0.094317341658366   0.110972006212371   1.0000000
B2   B   0.477358293861266   0.237055024585714   0.111102782070911   1.0000000
B2   B   0.480992295682371   0.381047928656985   0.111244742399322   1.0000000
B2   B   0.476440490877772   0.567892329356734   0.111913349097248   1.0000000
B2   B   0.466742411954594   0.664084836059964   0.111544771166728   1.0000000
B2   B   0.473794940465309   0.808040578655040   0.111011071793553   1.0000000
B2   B   0.617969764519504   0.949757131729858   0.111005476231022   1.0000000
B2   B   0.619011986311612   0.093152075721359   0.110951029598466   1.0000000
B2   B   0.619935797006244   0.235882307022548   0.110997107863008   1.0000000
B2   B   0.621417706845859   0.378304468276156   0.110945428054356   1.0000000
B2   B   0.622144484422461   0.519357113995307   0.111587256373949   1.0000000
B2   B   0.618513078687410   0.659696437231977   0.111204687183900   1.0000000
B2   B   0.616613741774514   0.805272738518277   0.111232120440937   1.0000000
B2   B   0.760460829133332   0.949753669984781   0.110978590689695   1.0000000
B2   B   0.761787344525165   0.093139108626860   0.111057293953794   1.0000000
B2   B   0.762563036231078   0.236042783209915   0.110900518433814   1.0000000
B2   B   0.763289302338882   0.378845807232301   0.111009991015715   1.0000000
B2   B   0.763829697311869   0.521700737405225   0.110951459975137   1.0000000
B2   B   0.761334437194579   0.663460630780634   0.111157132723587   1.0000000
B2   B   0.758435946641948   0.805612832064473   0.110970703474694   1.0000000
N2   N   0.951507543690764   0.903958621120194   0.110917800945806   1.0000000
N2   N   0.952609677574789   0.046994426783341   0.110953196446308   1.0000000
N2   N   0.953246433845811   0.189630578158962   0.111018587649406   1.0000000
N2   N   0.953161848647291   0.332182902070050   0.110941962964895   1.0000000
N2   N   0.952482901400408   0.474978508342508   0.110927727660749   1.0000000
N2   N   0.951794011770545   0.618126046357663   0.110974627755764   1.0000000
N2   N   0.951390577701043   0.761165053064161   0.110955780456573   1.0000000
N2   N   0.094642422591356   0.905249797825393   0.110877150012014   1.0000000
N2   N   0.095974117475977   0.048644136649641   0.110948979576565   1.0000000
N2   N   0.097985538375665   0.192463059389095   0.110989080595439   1.0000000
N2   N   0.096726438260756   0.333683875454208   0.110972120150695   1.0000000
N2   N   0.094517107669140   0.475925040792573   0.110924089477345   1.0000000
N2   N   0.093383472192540   0.618934053889587   0.110999502881998   1.0000000
N2   N   0.093999084711484   0.762164780806051   0.110936736199413   1.0000000
N2   N   0.237307113520302   0.905746197280636   0.110935180264725   1.0000000
N2   N   0.238446572921469   0.048978636784425   0.111010678798333   1.0000000
N2   N   0.240782308331634   0.193455607698186   0.111037975841493   1.0000000
N2   N   0.244321303046361   0.339189422008208   0.111025458032465   1.0000000
N2   N   0.237157298776861   0.477417113843548   0.110970952759378   1.0000000
N2   N   0.234327724192037   0.619769583172830   0.110992398489652   1.0000000
N2   N   0.236286969198684   0.762835051175845   0.111030354402311   1.0000000
N2   N   0.379987703700976   0.905581939883510   0.110954577907844   1.0000000
N2   N   0.380905285019270   0.048307111989903   0.110983605386608   1.0000000
N2   N   0.382250016955190   0.191944716580853   0.111087964653222   1.0000000
N2   N   0.386131448680963   0.338405290656349   0.111136375941131   1.0000000
N2   N   0.390208425357606   0.490419956169177   0.110970684274721   1.0000000
N2   N   0.373905058174560   0.621320505026335   0.110827352925791   1.0000000
N2   N   0.378507684659497   0.763235607342191   0.111057247347662   1.0000000
N2   N   0.522460800900473   0.903114855231093   0.110985709047041   1.0000000
N2   N   0.523624098345904   0.046429902662653   0.110922842770169   1.0000000
N2   N   0.524572329610209   0.189225642689358   0.111004172185719   1.0000000
N2   N   0.526148684484716   0.331876765557694   0.111133032347098   1.0000000
N2   N   0.519782412690497   0.757949271468286   0.111196494580283   1.0000000
N2   N   0.664673742419977   0.901011357668824   0.111030840724310   1.0000000
N2   N   0.666253676250062   0.045152965314554   0.110981765816962   1.0000000
N2   N   0.667240743815192   0.188255804597840   0.110907177194608   1.0000000
N2   N   0.668258976714817   0.330768336081698   0.110960503530921   1.0000000
N2   N   0.669286104088548   0.472891741666192   0.111022312430805   1.0000000
N2   N   0.665793911331496   0.613170237208012   0.111357329637950   1.0000000
N2   N   0.661632394919076   0.755418231402402   0.110899263370020   1.0000000
N2   N   0.807432627207698   0.901727884339192   0.110956466474821   1.0000000
N2   N   0.809080919178586   0.045456805048194   0.111046591757394   1.0000000
N2   N   0.810002891461888   0.188535530587417   0.110982449159081   1.0000000
N2   N   0.810516918053801   0.331278171585940   0.110912914979215   1.0000000
N2   N   0.810751673029434   0.474070805161799   0.110994716024324   1.0000000
N2   N   0.809655355868262   0.616853144953054   0.111013817489479   1.0000000
N2   N   0.807602985076405   0.759109009518559   0.110923332737834   1.0000000
O2   O   0.530551017185985   0.471952020510980   0.111257529936961   1.0000000


