data_1
_audit_creation_method   'vasp2cif'
_cell_length_a    17.52789999999977
_cell_length_b    17.52789999999977
_cell_length_c    15.0
_cell_angle_alpha    90.0
_cell_angle_beta    90.0
_cell_angle_gamma    119.99999999999916

_symmetry_space_group_name_H-M    'P 1'
loop_
_atom_site_label
_atom_site_type_symbol
_atom_site_fract_x
_atom_site_fract_y
_atom_site_fract_z
_atom_site_occupancy
B2   B   0.905161970306459   0.952762656728112   0.108859765426729   1.0000000
B2   B   0.904715369270448   0.095286651925534   0.110010103407689   1.0000000
B2   B   0.904590729843228   0.238067962687737   0.111126142214403   1.0000000
B2   B   0.904800176852817   0.380987439877231   0.111218237139880   1.0000000
B2   B   0.905177906830367   0.523937779885777   0.110571756350758   1.0000000
B2   B   0.904909030517892   0.666801471982851   0.109812373520640   1.0000000
B2   B   0.904930015383492   0.809627205433081   0.109099084936709   1.0000000
B2   B   0.047647209231734   0.952354811964270   0.110700225780654   1.0000000
B2   B   0.047239364467892   0.094840050889509   0.108859765426729   1.0000000
B2   B   0.046994473600733   0.237701560403416   0.107951061151780   1.0000000
B2   B   0.047075054480743   0.380850792322398   0.108694483120900   1.0000000
B2   B   0.047393922359184   0.523942506630888   0.109774674914348   1.0000000
B2   B   0.047674412894366   0.666804667452737   0.111011924842337   1.0000000
B2   B   0.047666788089558   0.809591336859995   0.111551029197656   1.0000000
B2   B   0.190410684336001   0.952335233106481   0.111551029197656   1.0000000
B2   B   0.190374815762930   0.095072005812518   0.109099084936709   1.0000000
B2   B   0.188995221814416   0.236706158026436   0.105394510096666   1.0000000
B2   B   0.189090853633722   0.380269432536544   0.107153724687194   1.0000000
B2   B   0.189422749868250   0.523881758035550   0.108679263129389   1.0000000
B2   B   0.190387866093637   0.666819277406269   0.110465324428652   1.0000000
B2   B   0.190415412934954   0.809586608261036   0.111655202513070   1.0000000
B2   B   0.333197353744261   0.952327608301637   0.111011924842337   1.0000000
B2   B   0.333200549214133   0.095092990678090   0.109812373520640   1.0000000
B2   B   0.333173373330560   0.238014065349567   0.106474515071611   1.0000000
B2   B   0.329555655181849   0.377972093986521   0.112924638577638   1.0000000
B2   B   0.330241476810407   0.523083272613924   0.120304663125559   1.0000000
B2   B   0.333233114003463   0.666768907193543   0.113130573663007   1.0000000
B2   B   0.333182743790743   0.809614155102366   0.110465324428652   1.0000000
B2   B   0.476059514566089   0.952608098836812   0.109774674914348   1.0000000
B2   B   0.476064241311221   0.094824114365622   0.110571756350758   1.0000000
B2   B   0.476187262295532   0.236897309897522   0.108412107205027   1.0000000
B2   B   0.476088662211559   0.377684642573968   0.108828171559246   1.0000000
B2   B   0.476918748583081   0.669760544386605   0.120304663125559   1.0000000
B2   B   0.476120263161434   0.810579271327754   0.108679263129389   1.0000000
B2   B   0.619151228873640   0.952926966715225   0.108694483120900   1.0000000
B2   B   0.619014581318773   0.095201844343187   0.111218237139880   1.0000000
B2   B   0.619138657249970   0.237588471745106   0.110818446839858   1.0000000
B2   B   0.619857571610041   0.380144449585941   0.108487884611463   1.0000000
B2   B   0.622317378622071   0.523913358985460   0.108828171559246   1.0000000
B2   B   0.622029927209454   0.670446366015142   0.112924638577638   1.0000000
B2   B   0.619732588659481   0.810911167562281   0.107153724687194   1.0000000
B2   B   0.762300460792630   0.953007547595249   0.107951061151780   1.0000000
B2   B   0.761934058508231   0.095411291352782   0.111126142214403   1.0000000
B2   B   0.761969081806463   0.238032939389569   0.112256119896010   1.0000000
B2   B   0.762413549450933   0.380863363946013   0.110818446839858   1.0000000
B2   B   0.763104711298467   0.523814758901480   0.108412107205027   1.0000000
B2   B   0.761987955846429   0.666828647866446   0.106474515071611   1.0000000
B2   B   0.763295863169560   0.811006799381587   0.105394510096659   1.0000000
N2   N   0.952479646743356   0.904850154489445   0.109791683980859   1.0000000
N2   N   0.952319098546567   0.047682303371424   0.109669760886945   1.0000000
N2   N   0.952027583853663   0.190374397491588   0.110054523669746   1.0000000
N2   N   0.952089466392380   0.333241245590905   0.110610737967761   1.0000000
N2   N   0.952382787768975   0.476181473120860   0.110709169646007   1.0000000
N2   N   0.952516493333611   0.619131661584468   0.110627137734163   1.0000000
N2   N   0.952513020915809   0.762007815671303   0.110427048133673   1.0000000
N2   N   0.095237430811686   0.904763971106313   0.111760828104380   1.0000000
N2   N   0.095151247428554   0.047521755174643   0.109791683980859   1.0000000
N2   N   0.094239514753639   0.189715237117078   0.106873539891886   1.0000000
N2   N   0.094259463191257   0.332906417520043   0.107309967257194   1.0000000
N2   N   0.094524428584890   0.476115056510885   0.108309832383931   1.0000000
N2   N   0.095186008978928   0.619144527839410   0.110291223724836   1.0000000
N2   N   0.095258742089712   0.761974802338052   0.111781153384492   1.0000000
N2   N   0.238026599579967   0.904742659828287   0.111781153384492   1.0000000
N2   N   0.237993586246702   0.047488381002189   0.110427048133673   1.0000000
N2   N   0.237851403676437   0.190261012604083   0.106716920363809   1.0000000
N2   N   0.235539526314824   0.331369605432968   0.104928380448264   1.0000000
N2   N   0.236208629016716   0.475834936463784   0.108843140416994   1.0000000
N2   N   0.237919759800256   0.619138129273971   0.110409732682811   1.0000000
N2   N   0.238005431443618   0.761995970474395   0.111032144872716   1.0000000
N2   N   0.380856874078582   0.904815392939085   0.110291223724836   1.0000000
N2   N   0.380869740333573   0.047484908584394   0.110627137734163   1.0000000
N2   N   0.380881354722376   0.190245249228674   0.108000901817384   1.0000000
N2   N   0.380936553031539   0.333737223071054   0.107495844911753   1.0000000
N2   N   0.371387411085585   0.470381221856400   0.130463671453143   1.0000000
N2   N   0.380906534431759   0.619094867486240   0.120321310074893   1.0000000
N2   N   0.380863272644014   0.762081642117742   0.110409732682811   1.0000000
N2   N   0.523886345406105   0.905476973333109   0.108309832383931   1.0000000
N2   N   0.523819928796144   0.047618614149059   0.110709169646007   1.0000000
N2   N   0.523957161297247   0.189848085066259   0.110070132468991   1.0000000
N2   N   0.524406546574774   0.331796660366734   0.107676495119335   1.0000000
N2   N   0.529620180060611   0.628613990832406   0.130463671453143   1.0000000
N2   N   0.524166465453177   0.763792772901283   0.108843140416994   1.0000000
N2   N   0.667094984396932   0.905741938726770   0.107309967257194   1.0000000
N2   N   0.666760156326106   0.047911935525661   0.110610737967761   1.0000000
N2   N   0.666780711713002   0.190335793528348   0.111977375337119   1.0000000
N2   N   0.667119504794314   0.332881897122647   0.110094634599427   1.0000000
N2   N   0.668204741550277   0.475594855342194   0.107676495119335   1.0000000
N2   N   0.666264178845928   0.619064848886474   0.107495844911753   1.0000000
N2   N   0.668631796484085   0.764461875603168   0.104928380448264   1.0000000
N2   N   0.810286164800850   0.905761887164360   0.106873539891886   1.0000000
N2   N   0.809627004426424   0.047973818064307   0.110054523669746   1.0000000
N2   N   0.809486242018941   0.190515159899050   0.112188357928048   1.0000000
N2   N   0.809665608389651   0.333220690204009   0.111977375337119   1.0000000
N2   N   0.810153316851732   0.476044240619750   0.110070132468991   1.0000000
N2   N   0.809756152689303   0.619120047195651   0.108000901817384   1.0000000
N2   N   0.809740389313887   0.762149998241561   0.106716920363809   1.0000000
Ge2   Ge   0.477248177593509   0.522753843603482   0.187035026155335   1.0000000
O2   O   0.528431897517663   0.471569504399319   0.106628806844164   1.0000000


