data_1
_audit_creation_method   'vasp2cif'
_cell_length_a    17.52789999999977
_cell_length_b    17.52789999999977
_cell_length_c    15.0
_cell_angle_alpha    90.0
_cell_angle_beta    90.0
_cell_angle_gamma    119.99999999999916

_symmetry_space_group_name_H-M    'P 1'
loop_
_atom_site_label
_atom_site_type_symbol
_atom_site_fract_x
_atom_site_fract_y
_atom_site_fract_z
_atom_site_occupancy
B2   B   0.905156578574482   0.953372815908690   0.127343333228522   1.0000000
B2   B   0.904156228836043   0.095843883106117   0.125429245885497   1.0000000
B2   B   0.903829089119530   0.238650697216006   0.120233027187401   1.0000000
B2   B   0.903970370066958   0.381471865393804   0.114517653353786   1.0000000
B2   B   0.905042629508406   0.524420755942860   0.112726841373888   1.0000000
B2   B   0.906115742571678   0.667559094173774   0.116909026808612   1.0000000
B2   B   0.906391466017207   0.810977217032223   0.124170728590227   1.0000000
B2   B   0.047712559157228   0.952289736705395   0.126703923515804   1.0000000
B2   B   0.046629112575716   0.094844760625513   0.127330706755560   1.0000000
B2   B   0.046354217051181   0.238046636143363   0.122974274985520   1.0000000
B2   B   0.046656313222834   0.381052078190192   0.116597497421372   1.0000000
B2   B   0.047673263770542   0.523888129060483   0.113442039737709   1.0000000
B2   B   0.048445018739345   0.666737972957115   0.115940170124386   1.0000000
B2   B   0.048370584157052   0.809583361591143   0.121996995459716   1.0000000
B2   B   0.190417753681372   0.951630564673694   0.121988531034274   1.0000000
B2   B   0.189023598970690   0.093609565998810   0.124147653883463   1.0000000
B2   B   0.187823245469102   0.236189190770816   0.120829155195507   1.0000000
B2   B   0.188630640417943   0.380181996539612   0.112033784226189   1.0000000
B2   B   0.190367670066243   0.523284298279745   0.107988362959120   1.0000000
B2   B   0.191299801865409   0.666199403734370   0.110375342782419   1.0000000
B2   B   0.190993733194273   0.809007585393323   0.116549270084075   1.0000000
B2   B   0.333263818776257   0.951556427940563   0.115927025822290   1.0000000
B2   B   0.332441081297944   0.093885210305788   0.116885229814903   1.0000000
B2   B   0.329354500276156   0.233989911957840   0.111681909887955   1.0000000
B2   B   0.326667318955411   0.376658693457675   0.095432075240270   1.0000000
B2   B   0.332252550684209   0.521143703718311   0.088992292315331   1.0000000
B2   B   0.334536729745218   0.665465428683208   0.100174550024136   1.0000000
B2   B   0.333802087696545   0.808700396936727   0.110369745357474   1.0000000
B2   B   0.476116160752652   0.952328585166226   0.113426540936848   1.0000000
B2   B   0.475580838823626   0.094958589183512   0.112707025917006   1.0000000
B2   B   0.474495493002658   0.236799728994960   0.104362406065924   1.0000000
B2   B   0.465874996649377   0.369525338334047   0.081128501366855   1.0000000
B2   B   0.478860841433038   0.667749420583381   0.089010194046444   1.0000000
B2   B   0.476719026741709   0.809633975213465   0.107989483417633   1.0000000
B2   B   0.618950754762951   0.953344862010243   0.116598428037135   1.0000000
B2   B   0.618532153901919   0.096030740376053   0.114505527278930   1.0000000
B2   B   0.618122355161715   0.238928867110218   0.107388636936535   1.0000000
B2   B   0.617787573120282   0.382214693253818   0.093703323231717   1.0000000
B2   B   0.630479656780733   0.534131810929420   0.081163917311801   1.0000000
B2   B   0.623342206734515   0.673333453327425   0.095480109613175   1.0000000
B2   B   0.619819325542981   0.811370813137730   0.112061432389514   1.0000000
B2   B   0.761953097944480   0.953647133991831   0.122991406396621   1.0000000
B2   B   0.761350355934018   0.096171133016092   0.120232977848055   1.0000000
B2   B   0.761067789512088   0.238934317925969   0.114156845919131   1.0000000
B2   B   0.761072227313187   0.381878792858196   0.107396539837535   1.0000000
B2   B   0.763201342595466   0.525503498868770   0.104386306760089   1.0000000
B2   B   0.766014875486684   0.670649102882415   0.111720995430267   1.0000000
B2   B   0.763812242607930   0.812180359760313   0.120863807039843   1.0000000
N2   N   0.952964796196526   0.905657089772658   0.127278713722144   1.0000000
N2   N   0.951854435938594   0.048148121671673   0.127655410371318   1.0000000
N2   N   0.951280923123489   0.190890552149463   0.123769929807501   1.0000000
N2   N   0.951316069308067   0.333749585965542   0.117712536608552   1.0000000
N2   N   0.952169081640502   0.476589750426809   0.113722786281773   1.0000000
N2   N   0.953082292200858   0.619488378132482   0.115494692368047   1.0000000
N2   N   0.953307995807405   0.762515433008312   0.122064240818779   1.0000000
N2   N   0.095415153914338   0.904585638334727   0.124370716187672   1.0000000
N2   N   0.094345366328163   0.047037608505459   0.127265612826536   1.0000000
N2   N   0.093301196488573   0.189601770395521   0.125482288156887   1.0000000
N2   N   0.093651896779534   0.333032470738838   0.118523553626897   1.0000000
N2   N   0.094886982224857   0.476124634397487   0.113133631151453   1.0000000
N2   N   0.095812247483992   0.619019526202202   0.113195247442437   1.0000000
N2   N   0.095816091973291   0.761819249678079   0.118507701742923   1.0000000
N2   N   0.238182078646087   0.904184192997073   0.118499548905433   1.0000000
N2   N   0.237485026527104   0.046692194557242   0.122045473745028   1.0000000
N2   N   0.235452838579728   0.188159390201039   0.121162333686701   1.0000000
N2   N   0.233914680074759   0.330289674424386   0.113033873022290   1.0000000
N2   N   0.237057254151835   0.475202217160342   0.104545815961818   1.0000000
N2   N   0.238808874506562   0.618565529418227   0.105540922307931   1.0000000
N2   N   0.238557976157235   0.761442647323618   0.111973165265220   1.0000000
N2   N   0.380982403455444   0.904188864383858   0.113181764698693   1.0000000
N2   N   0.380512792883281   0.046918452878323   0.115474771921038   1.0000000
N2   N   0.379493640270280   0.188976920506386   0.111561539816604   1.0000000
N2   N   0.374658426613112   0.327633621182465   0.098020895583864   1.0000000
N2   N   0.371407291883180   0.467443550623553   0.075718492849313   1.0000000
N2   N   0.382109671725852   0.617892711516939   0.089360735864906   1.0000000
N2   N   0.381436232499228   0.761192313380263   0.105539496890556   1.0000000
N2   N   0.523877675457821   0.905114719252424   0.113125889744288   1.0000000
N2   N   0.523413992100375   0.047833332641429   0.113703822824462   1.0000000
N2   N   0.522886573726951   0.190461302558813   0.108407387257709   1.0000000
N2   N   0.521456069700753   0.332355824426896   0.091584539139094   1.0000000
N2   N   0.532559774204108   0.628590869141906   0.075754293822573   1.0000000
N2   N   0.524800812765100   0.762944014891693   0.104561587062315   1.0000000
N2   N   0.666968487232010   0.906348917620378   0.118542295931522   1.0000000
N2   N   0.666251515868287   0.048685230064888   0.117706707294778   1.0000000
N2   N   0.665815251025261   0.191533236440744   0.112071831715188   1.0000000
N2   N   0.665280335393926   0.334720256058217   0.102745019436615   1.0000000
N2   N   0.667646549646905   0.478547350654058   0.091606008054720   1.0000000
N2   N   0.672368996801733   0.625343677416009   0.098071193778155   1.0000000
N2   N   0.669711371307761   0.766085552850149   0.113079993460146   1.0000000
N2   N   0.810400536292442   0.906702161238795   0.125504648385101   1.0000000
N2   N   0.809110130206536   0.048720119013858   0.123776331730325   1.0000000
N2   N   0.808624195338396   0.191375653688980   0.118742726095663   1.0000000
N2   N   0.808467980515949   0.334185727888427   0.112078240300225   1.0000000
N2   N   0.809539707390197   0.477115064217416   0.108424331946012   1.0000000
N2   N   0.811024413129679   0.620507008247313   0.111593171576784   1.0000000
N2   N   0.811842126496782   0.764549092471180   0.121198870891779   1.0000000
Sn2   Sn   0.494432135871143   0.505575163473174   0.021864572763780   1.0000000


