data_1
_audit_creation_method   'vasp2cif'
_cell_length_a    17.52789999999977
_cell_length_b    17.52789999999977
_cell_length_c    15.0
_cell_angle_alpha    90.0
_cell_angle_beta    90.0
_cell_angle_gamma    119.99999999999916

_symmetry_space_group_name_H-M    'P 1'
loop_
_atom_site_label
_atom_site_type_symbol
_atom_site_fract_x
_atom_site_fract_y
_atom_site_fract_z
_atom_site_occupancy
S2   S   0.424261662093744   0.497846033670873   0.111044079664610   1.0000000
B2   B   0.904450820162134   0.952191925147888   0.111002460534509   1.0000000
B2   B   0.906897423795683   0.096593739121629   0.111041928590829   1.0000000
B2   B   0.907712156136651   0.239570424913828   0.111082382358403   1.0000000
B2   B   0.906897423795683   0.381732378365052   0.111041928590829   1.0000000
B2   B   0.904450820162134   0.523689300262247   0.111002460534509   1.0000000
B2   B   0.902598117251963   0.665721320075226   0.111045453321235   1.0000000
B2   B   0.902598117251963   0.808307202424739   0.111045453321235   1.0000000
B2   B   0.046622045444744   0.951538293830839   0.111008682110126   1.0000000
B2   B   0.049058530069606   0.095978014016191   0.111011485810934   1.0000000
B2   B   0.051498989929127   0.240262855497923   0.111041765525074   1.0000000
B2   B   0.051498989929127   0.382666539678205   0.111041765525074   1.0000000
B2   B   0.049058530069606   0.524510921301409   0.111011485810934   1.0000000
B2   B   0.046622045444744   0.666515868417902   0.111008682110126   1.0000000
B2   B   0.046089909391638   0.808761013097821   0.110986871575429   1.0000000
B2   B   0.189590324991239   0.951456907232000   0.111000696667380   1.0000000
B2   B   0.190193270457503   0.093849389447112   0.111048985424664   1.0000000
B2   B   0.194144194376690   0.239412046082510   0.111033784427336   1.0000000
B2   B   0.197050601055767   0.384240503151383   0.111049179284512   1.0000000
B2   B   0.194144194376690   0.526162553542181   0.111033784427336   1.0000000
B2   B   0.190193270457503   0.667774286258386   0.111048985424664   1.0000000
B2   B   0.189590324991239   0.809565534563242   0.111000696667380   1.0000000
B2   B   0.333142638778033   0.952287377790517   0.111014179884432   1.0000000
B2   B   0.333242944346103   0.093048085405425   0.111075401141775   1.0000000
B2   B   0.333449516509067   0.233160640846777   0.111050891177550   1.0000000
B2   B   0.340644355065262   0.377167039204369   0.111022215115527   1.0000000
B2   B   0.340644355065262   0.534907721107894   0.111022215115527   1.0000000
B2   B   0.333449516509067   0.671719280909289   0.111050891177550   1.0000000
B2   B   0.333242944346103   0.811625264187677   0.111075401141775   1.0000000
B2   B   0.477013499777175   0.953636551949107   0.111010377196413   1.0000000
B2   B   0.477013499777175   0.094807353075069   0.111010377196413   1.0000000
B2   B   0.477001766016977   0.235960861355061   0.111043055756610   1.0000000
B2   B   0.476736373201602   0.376820421697208   0.110991814554905   1.0000000
B2   B   0.476736373201602   0.671346356751393   0.110991814554905   1.0000000
B2   B   0.477001766016977   0.812471309908922   0.111043055756610   1.0000000
B2   B   0.620503808743050   0.953881285872953   0.111012076358157   1.0000000
B2   B   0.620672996778494   0.096050845234742   0.110995794847753   1.0000000
B2   B   0.620503808743050   0.238052928117098   0.111012076358157   1.0000000
B2   B   0.619392302819137   0.379951901805133   0.111020815664788   1.0000000
B2   B   0.612869687064636   0.521373846999487   0.111029762111137   1.0000000
B2   B   0.612869687064636   0.662926245313142   0.111029762111137   1.0000000
B2   B   0.619392302819137   0.810870806261004   0.111020815664788   1.0000000
B2   B   0.762921785624028   0.953284576188052   0.111003691215315   1.0000000
B2   B   0.764000744443651   0.096498977569552   0.111044838339595   1.0000000
B2   B   0.764000744443651   0.238930460565096   0.111044838339595   1.0000000
B2   B   0.762921785624028   0.381067614682977   0.111003691215315   1.0000000
B2   B   0.759453859445342   0.522832997992134   0.111042723538988   1.0000000
B2   B   0.757957471746744   0.664693938497369   0.111080276581158   1.0000000
B2   B   0.759453859445342   0.808051266701212   0.111042723538988   1.0000000
N2   N   0.951269946010656   0.903900322500217   0.110999289388245   1.0000000
N2   N   0.953558857196332   0.048138973840046   0.110989442515038   1.0000000
N2   N   0.955768178880480   0.192295254254389   0.111044970055401   1.0000000
N2   N   0.955768178880480   0.334899906744089   0.111044970055401   1.0000000
N2   N   0.953558857196332   0.476846865474286   0.110989442515038   1.0000000
N2   N   0.951269946010656   0.618798317185435   0.110999289388245   1.0000000
N2   N   0.950607754576101   0.761018224125551   0.111016232417282   1.0000000
N2   N   0.094207178349591   0.903983510735032   0.110969249202478   1.0000000
N2   N   0.095146374345198   0.046991821804987   0.111007081090133   1.0000000
N2   N   0.098523136431864   0.192077909794899   0.111003974718533   1.0000000
N2   N   0.100794164122165   0.336111428898083   0.111023981865871   1.0000000
N2   N   0.098523136431864   0.477873920310965   0.111003974718533   1.0000000
N2   N   0.095146374345198   0.619583246215215   0.111007081090133   1.0000000
N2   N   0.094207178349591   0.761654072845564   0.110969249202478   1.0000000
N2   N   0.237638229706624   0.904534317468811   0.110978141928970   1.0000000
N2   N   0.237824192584636   0.046410937653418   0.111032368162430   1.0000000
N2   N   0.238754392540472   0.188987972391877   0.111036236965811   1.0000000
N2   N   0.245038367808945   0.336442002012307   0.111018513680385   1.0000000
N2   N   0.245038367808945   0.480025059470632   0.111018513680385   1.0000000
N2   N   0.238754392540472   0.621195113823590   0.111036236965811   1.0000000
N2   N   0.237824192584636   0.762841948606222   0.111032368162430   1.0000000
N2   N   0.381483140064312   0.906103448383859   0.111011064247325   1.0000000
N2   N   0.381483140064312   0.046808385355455   0.111011064247325   1.0000000
N2   N   0.381600803355905   0.187318893627976   0.111056862714671   1.0000000
N2   N   0.381938625111223   0.326763992386007   0.110989471657668   1.0000000
N2   N   0.381938625111223   0.626603326400212   0.110989471657668   1.0000000
N2   N   0.381600803355905   0.765710603402933   0.111056862714671   1.0000000
N2   N   0.525162650028172   0.907033612222363   0.111011840132845   1.0000000
N2   N   0.525227261219198   0.048327121669103   0.110966311190930   1.0000000
N2   N   0.525162650028172   0.189557731480812   0.111011840132845   1.0000000
N2   N   0.524792170076064   0.330532432485405   0.111004317382043   1.0000000
N2   N   0.517100157084721   0.469698699665268   0.110962293648012   1.0000000
N2   N   0.517100157084722   0.618830151094450   0.110962293648012   1.0000000
N2   N   0.524792170076064   0.765688431265662   0.111004317382043   1.0000000
N2   N   0.667851911498358   0.906145528796088   0.110995492178298   1.0000000
N2   N   0.668633067243428   0.048961738219977   0.110996746808943   1.0000000
N2   N   0.668633067243428   0.191098311142459   0.110996746808943   1.0000000
N2   N   0.667851911498358   0.333135076377272   0.110995492178298   1.0000000
N2   N   0.663627127395715   0.474979276471700   0.111019358491487   1.0000000
N2   N   0.661949894307116   0.616689293991557   0.111045943889285   1.0000000
N2   N   0.663627127395715   0.760076544599019   0.111019358491487   1.0000000
N2   N   0.808906649649837   0.904178920816157   0.110995578185301   1.0000000
N2   N   0.811496175157106   0.048831233807584   0.111017827220698   1.0000000
N2   N   0.812194740985016   0.191810861551511   0.111058867000747   1.0000000
N2   N   0.811496175157106   0.334091923467527   0.111017827220698   1.0000000
N2   N   0.808906649649837   0.476156422507682   0.110995578185301   1.0000000
N2   N   0.806948176445130   0.618027971255957   0.111056072565717   1.0000000
N2   N   0.806948176445130   0.760348898864174   0.111056072565717   1.0000000


