data_1
_audit_creation_method   'vasp2cif'
_cell_length_a    14.93631414619966
_cell_length_b    14.936314146199727
_cell_length_c    13.341276283792837
_cell_angle_alpha    90.0
_cell_angle_beta    90.0
_cell_angle_gamma    119.99999999999984

_symmetry_space_group_name_H-M    'P 1'
loop_
_atom_site_label
_atom_site_type_symbol
_atom_site_fract_x
_atom_site_fract_y
_atom_site_fract_z
_atom_site_occupancy
As2   As   0.508645307614158   0.420989320473745   0.375000000000000   1.0000000
N2   N   0.111121927410038   0.055549935763209   0.124544453044012   1.0000000
N2   N   0.611141801741908   0.555646588477354   0.121086201208510   1.0000000
N2   N   0.444466296134011   0.055547957129254   0.124215945248701   1.0000000
N2   N   0.944394906524467   0.555528878182413   0.124130533737839   1.0000000
N2   N   0.777822753357657   0.055578043345321   0.124146585508203   1.0000000
N2   N   0.111065054954119   0.722199194143427   0.625372430000682   1.0000000
N2   N   0.444466296134012   0.722251672338054   0.625784054751671   1.0000000
N2   N   0.277753319693354   0.222204864544094   0.626467095141606   1.0000000
N2   N   0.777752483041152   0.722233930043470   0.626686398165628   1.0000000
N2   N   0.611136996255270   0.222197136360535   0.626805385486446   1.0000000
N2   N   0.944480724838336   0.222245562270014   0.625693755750836   1.0000000
N2   N   0.277780093319018   0.722229594205731   0.124728940674808   1.0000000
N2   N   0.111112829539264   0.222223081436347   0.124314168430791   1.0000000
N2   N   0.444467217955699   0.222202079066725   0.122770815588983   1.0000000
N2   N   0.611136996255270   0.722273193226725   0.123194614513730   1.0000000
N2   N   0.944394906524467   0.722199361675660   0.124130533737839   1.0000000
N2   N   0.777818908964209   0.222218254053626   0.123835866673829   1.0000000
N2   N   0.111098981998197   0.888872564928067   0.625461856419189   1.0000000
N2   N   0.444476147814335   0.888904740573727   0.625433073285101   1.0000000
N2   N   0.277753319693354   0.388881788482497   0.626467095141606   1.0000000
N2   N   0.611141801741908   0.388828546598214   0.628913798791721   1.0000000
N2   N   0.777818908964209   0.888933988244120   0.626164133326432   1.0000000
N2   N   0.944451157094317   0.388886458900761   0.625745433252851   1.0000000
N2   N   0.111121927410046   0.388905324979862   0.124544453044012   1.0000000
N2   N   0.277780093319018   0.888883832447327   0.124728940674808   1.0000000
N2   N   0.611156839357482   0.888932079313273   0.124191000405889   1.0000000
N2   N   0.444275025858834   0.388804179595731   0.120605140397581   1.0000000
N2   N   0.944451157094317   0.888898031527921   0.124254566747074   1.0000000
N2   N   0.777752483041152   0.388851886330303   0.123313601833805   1.0000000
N2   N   0.277791900886175   0.555580124200009   0.625670548013614   1.0000000
N2   N   0.111121927410038   0.055549935763209   0.625455546956264   1.0000000
N2   N   0.611141801741908   0.555646588477354   0.628913798791721   1.0000000
N2   N   0.444466296134011   0.055547957129306   0.625784054751671   1.0000000
N2   N   0.944394906524467   0.555528878182413   0.625869466262284   1.0000000
N2   N   0.111098981998197   0.555559750403839   0.124538143580674   1.0000000
N2   N   0.777822753357657   0.055578043345320   0.625853414491346   1.0000000
N2   N   0.277791900886175   0.055545110019411   0.124329451986290   1.0000000
N2   N   0.444467217955698   0.555598472222226   0.122770815588996   1.0000000
N2   N   0.777730224470618   0.555531778902134   0.122973750894929   1.0000000
N2   N   0.611156839357482   0.055558093377731   0.124191000405892   1.0000000
N2   N   0.444467217955698   0.555598472222226   0.627229184410959   1.0000000
N2   N   0.944480724838340   0.055568495901444   0.124306244248712   1.0000000
N2   N   0.277780093319018   0.722229594205731   0.625271059324984   1.0000000
N2   N   0.111112829539213   0.222223081436347   0.625685831568596   1.0000000
N2   N   0.444467217955698   0.222202079066723   0.627229184410959   1.0000000
N2   N   0.611136996255271   0.722273193226725   0.626805385486446   1.0000000
N2   N   0.944394906524467   0.722199361675660   0.625869466262284   1.0000000
N2   N   0.777818908964118   0.222218254053626   0.626164133326432   1.0000000
N2   N   0.111065054954119   0.722199194143427   0.124627569999360   1.0000000
N2   N   0.444466296134011   0.722251672338054   0.124215945248701   1.0000000
N2   N   0.277753319693354   0.222204864544094   0.123532904858564   1.0000000
N2   N   0.777752483041152   0.722233930043470   0.123313601833805   1.0000000
N2   N   0.611136996255271   0.222197136360535   0.123194614513730   1.0000000
N2   N   0.944480724838336   0.222245562270014   0.124306244248712   1.0000000
N2   N   0.111121927410056   0.388905324979849   0.625455546956264   1.0000000
N2   N   0.277780093319018   0.888883832447327   0.625271059324984   1.0000000
N2   N   0.611156839357482   0.888932079313273   0.625808999594016   1.0000000
N2   N   0.444275025858834   0.388804179595731   0.629394859602170   1.0000000
N2   N   0.944451157094317   0.888898031527921   0.625745433252851   1.0000000
N2   N   0.111098981998196   0.888872564928067   0.124538143580674   1.0000000
N2   N   0.777752483041152   0.388851886330304   0.626686398165628   1.0000000
N2   N   0.444476147814335   0.888904740573727   0.124566926714842   1.0000000
N2   N   0.277753319693355   0.388881788482497   0.123532904858564   1.0000000
N2   N   0.277791900886176   0.555580124200009   0.124329451986290   1.0000000
N2   N   0.611141801741908   0.388828546598213   0.121086201208507   1.0000000
N2   N   0.777818908964209   0.888933988244120   0.123835866673829   1.0000000
N2   N   0.944451157094274   0.388886458900761   0.124254566747077   1.0000000
N2   N   0.111098981998197   0.555559750403839   0.625461856419189   1.0000000
N2   N   0.277791900886175   0.055545110019411   0.625670548013614   1.0000000
N2   N   0.777730224470618   0.555531778902134   0.627026249104944   1.0000000
N2   N   0.611156839357483   0.055558093377725   0.625808999594016   1.0000000
N2   N   0.944480724838336   0.055568495901444   0.625693755750836   1.0000000
N2   N   0.060093878338576   0.113647843281693   0.375000000000000   1.0000000
N2   N   0.556214465697287   0.622442760696542   0.375000000000000   1.0000000
N2   N   0.388621032837749   0.105813483312997   0.375000000000000   1.0000000
N2   N   0.885429656438632   0.609381494885757   0.375000000000000   1.0000000
N2   N   0.725195925204442   0.111569084912933   0.375000000000000   1.0000000
N2   N   0.054945083303839   0.777460411490436   0.875000000000000   1.0000000
N2   N   0.388275918874176   0.777462787405709   0.875000000000000   1.0000000
N2   N   0.221651620464443   0.277492476898759   0.875000000000000   1.0000000
N2   N   0.721623970577085   0.777470588597982   0.875000000000000   1.0000000
N2   N   0.554969619687786   0.277478224785543   0.875000000000000   1.0000000
N2   N   0.888321885479246   0.277493500527314   0.875000000000000   1.0000000
N2   N   0.220874938641943   0.777104135987818   0.375000000000000   1.0000000
N2   N   0.060093878338576   0.279779368389803   0.375000000000000   1.0000000
N2   N   0.395151206659206   0.274733107306435   0.375000000000000   1.0000000
N2   N   0.556679494843888   0.783116438592125   0.375000000000000   1.0000000
N2   N   0.888682679604746   0.778172703003681   0.375000000000000   1.0000000
N2   N   0.724433059380411   0.276231404747008   0.375000000000000   1.0000000
N2   N   0.054959232527956   0.944155600404571   0.875000000000000   1.0000000
N2   N   0.388275918874177   0.944146464801347   0.875000000000000   1.0000000
N2   N   0.221617800166054   0.444150909148284   0.875000000000000   1.0000000
N2   N   0.554956117733819   0.444144725533574   0.875000000000000   1.0000000
N2   N   0.721618662354089   0.944155161907603   0.875000000000000   1.0000000
N2   N   0.888291857519773   0.444142519151224   0.875000000000000   1.0000000
N2   N   0.057042301181254   0.445182559749129   0.375000000000000   1.0000000
N2   N   0.221466134867914   0.942749916666723   0.375000000000000   1.0000000
N2   N   0.556747739324359   0.945040536328539   0.375000000000000   1.0000000
N2   N   0.395151206659206   0.453751432686115   0.375000000000000   1.0000000
N2   N   0.892110057431159   0.946882434471004   0.375000000000000   1.0000000
N2   N   0.719140130274063   0.441120683178312   0.375000000000000   1.0000000
N2   N   0.221638368738569   0.610824258569203   0.875000000000000   1.0000000
N2   N   0.054967764491862   0.110804192981885   0.875000000000000   1.0000000
N2   N   0.554969619687793   0.610824728234818   0.875000000000000   1.0000000
N2   N   0.388283414752032   0.110789813377093   0.875000000000000   1.0000000
N2   N   0.888304977425092   0.610819155378649   0.875000000000000   1.0000000
N2   N   0.053885590404835   0.610581743651322   0.375000000000000   1.0000000
N2   N   0.721618662354053   0.110796833779626   0.875000000000000   1.0000000
N2   N   0.225599034818660   0.112064884549696   0.375000000000000   1.0000000
N2   N   0.388621032837749   0.616140882858392   0.375000000000000   1.0000000
N2   N   0.719140130274061   0.611352780429699   0.375000000000000   1.0000000
N2   N   0.556679494843890   0.106896389584652   0.375000000000000   1.0000000
N2   N   0.388283414752031   0.610826934708559   0.875000000000000   1.0000000
N2   N   0.892946895128493   0.113140114230969   0.375000000000000   1.0000000
N2   N   0.221603025030369   0.777468179182060   0.875000000000000   1.0000000
N2   N   0.054967764491863   0.277496904843450   0.875000000000000   1.0000000
N2   N   0.388283677823366   0.277475718050096   0.875000000000000   1.0000000
N2   N   0.554944600341777   0.777479705491045   0.875000000000000   1.0000000
N2   N   0.888291857519772   0.777482671701650   0.875000000000000   1.0000000
N2   N   0.721623970577085   0.277486715312778   0.875000000000000   1.0000000
N2   N   0.053885590404837   0.776637180086849   0.375000000000000   1.0000000
N2   N   0.388455425212428   0.779250964968719   0.375000000000000   1.0000000
N2   N   0.228867456431976   0.281100394882833   0.375000000000000   1.0000000
N2   N   0.724433059380413   0.781534987966583   0.375000000000000   1.0000000
N2   N   0.556214465697285   0.267105038333651   0.375000000000000   1.0000000
N2   N   0.892110057431160   0.278560956293105   0.375000000000000   1.0000000
N2   N   0.054959232527952   0.444136965456606   0.875000000000000   1.0000000
N2   N   0.221638368738569   0.944147443503330   0.875000000000000   1.0000000
N2   N   0.554965429756461   0.944149381545097   0.875000000000000   1.0000000
N2   N   0.388283677823366   0.444141293106444   0.875000000000000   1.0000000
N2   N   0.888321885479250   0.944161718285409   0.875000000000000   1.0000000
N2   N   0.057042301181253   0.945193074765300   0.375000000000000   1.0000000
N2   N   0.721628417470653   0.444136974002911   0.875000000000000   1.0000000
N2   N   0.388455425212428   0.942537793576602   0.375000000000000   1.0000000
N2   N   0.225599034818646   0.446867483602417   0.375000000000000   1.0000000
N2   N   0.221466134867871   0.612049551534185   0.375000000000000   1.0000000
N2   N   0.725195925204442   0.946960173624788   0.375000000000000   1.0000000
N2   N   0.888682679604749   0.443843309934228   0.375000000000000   1.0000000
N2   N   0.054945083303827   0.610818005146667   0.875000000000000   1.0000000
N2   N   0.221617800166052   0.110800224351326   0.875000000000000   1.0000000
N2   N   0.721628417470653   0.610824776801293   0.875000000000000   1.0000000
N2   N   0.554944600341777   0.110798228184581   0.875000000000000   1.0000000
N2   N   0.888292963131423   0.110813148232304   0.875000000000000   1.0000000
B2   B   0.114757719121596   0.057166333286045   0.375000000000000   1.0000000
B2   B   0.606989323898861   0.564764826858311   0.375000000000000   1.0000000
B2   B   0.445206505017084   0.052657542842666   0.375000000000000   1.0000000
B2   B   0.942387862334362   0.554883696064225   0.375000000000000   1.0000000
B2   B   0.781669581822934   0.057501457578324   0.375000000000000   1.0000000
B2   B   0.110464384214756   0.721898858774024   0.875000000000000   1.0000000
B2   B   0.443815211278334   0.721882446732587   0.875000000000000   1.0000000
B2   B   0.277308477358707   0.222068047200583   0.875000000000000   1.0000000
B2   B   0.777112349998045   0.721863942575484   0.875000000000000   1.0000000
B2   B   0.610564153708574   0.222059492469621   0.875000000000000   1.0000000
B2   B   0.943947608246066   0.222054579973960   0.875000000000000   1.0000000
B2   B   0.277275691364066   0.722726514951877   0.375000000000000   1.0000000
B2   B   0.117725331678200   0.225529332505862   0.375000000000000   1.0000000
B2   B   0.444896302233512   0.216119703184294   0.375000000000000   1.0000000
B2   B   0.613275707496367   0.730014051182774   0.375000000000000   1.0000000
B2   B   0.942387862334356   0.720837499603359   0.375000000000000   1.0000000
B2   B   0.781046335407999   0.222508630411747   0.375000000000000   1.0000000
B2   B   0.110590754919438   0.888635882459325   0.875000000000000   1.0000000
B2   B   0.443914124903431   0.888623729118722   0.875000000000000   1.0000000
B2   B   0.277308477358708   0.388573763491872   0.875000000000000   1.0000000
B2   B   0.610532114291133   0.388570706363674   0.875000000000000   1.0000000
B2   B   0.777249097163240   0.888608073100706   0.875000000000000   1.0000000
B2   B   0.943928319340804   0.388555841355222   0.875000000000000   1.0000000
B2   B   0.114757719121596   0.390924719168909   0.375000000000000   1.0000000
B2   B   0.277275691364066   0.887882509744848   0.375000000000000   1.0000000
B2   B   0.613704791867943   0.892299853665880   0.375000000000000   1.0000000
B2   B   0.945918582098405   0.889764588532277   0.375000000000000   1.0000000
B2   B   0.777094211984208   0.387609817714154   0.375000000000000   1.0000000
B2   B   0.277272257383788   0.555359501266703   0.875000000000000   1.0000000
B2   B   0.110521365453254   0.055264030379005   0.875000000000000   1.0000000
B2   B   0.610532114291133   0.555294741259929   0.875000000000000   1.0000000
B2   B   0.443815211278334   0.055266097879298   0.875000000000000   1.0000000
B2   B   0.943893057587177   0.555352699269287   0.875000000000000   1.0000000
B2   B   0.110664797984003   0.556043350775909   0.375000000000000   1.0000000
B2   B   0.777144609748527   0.055238971540941   0.875000000000000   1.0000000
B2   B   0.278310588939332   0.053897877490472   0.375000000000000   1.0000000
B2   B   0.444896302233512   0.562109932382519   0.375000000000000   1.0000000
B2   B   0.772602727775686   0.552968030555038   0.375000000000000   1.0000000
B2   B   0.613704791867943   0.054738271535134   0.375000000000000   1.0000000
B2   B   0.443922023489860   0.555257159391692   0.875000000000000   1.0000000
B2   B   0.948989885495895   0.058113656802008   0.375000000000000   1.0000000
B2   B   0.277253188902706   0.721874701879028   0.875000000000000   1.0000000
B2   B   0.110641438287567   0.221987385810465   0.875000000000000   1.0000000
B2   B   0.443922023489861   0.221998197431376   0.875000000000000   1.0000000
B2   B   0.610564153708574   0.721837994571706   0.875000000000000   1.0000000
B2   B   0.943893057587176   0.721873691651685   0.875000000000000   1.0000000
B2   B   0.777249097163240   0.221974357396364   0.875000000000000   1.0000000
B2   B   0.109670475469755   0.721501904401561   0.375000000000000   1.0000000
B2   B   0.445206505017084   0.725882295507576   0.375000000000000   1.0000000
B2   B   0.285740977170188   0.225548741683484   0.375000000000000   1.0000000
B2   B   0.777094211984207   0.722817727602823   0.375000000000000   1.0000000
B2   B   0.613275707496367   0.216594989646882   0.375000000000000   1.0000000
B2   B   0.948989885495895   0.224209562027022   0.375000000000000   1.0000000
B2   B   0.110521365453250   0.388590668407560   0.875000000000000   1.0000000
B2   B   0.277253188902698   0.888711820356492   0.875000000000000   1.0000000
B2   B   0.610575923891183   0.888685179861059   0.875000000000000   1.0000000
B2   B   0.443850915047886   0.388592124190696   0.875000000000000   1.0000000
B2   B   0.943928319340804   0.888705811318867   0.875000000000000   1.0000000
B2   B   0.110664797984004   0.887954780541775   0.375000000000000   1.0000000
B2   B   0.777112349998046   0.388581740755283   0.875000000000000   1.0000000
B2   B   0.445241350578187   0.889287341955622   0.375000000000000   1.0000000
B2   B   0.285740977170187   0.393525568819828   0.375000000000000   1.0000000
B2   B   0.278310588939317   0.557746044782010   0.375000000000000   1.0000000
B2   B   0.606989323898862   0.375557830374055   0.375000000000000   1.0000000
B2   B   0.781046335408066   0.891871038328223   0.375000000000000   1.0000000
B2   B   0.945918582098405   0.389487326899120   0.375000000000000   1.0000000
B2   B   0.110590754919438   0.555288205792702   0.875000000000000   1.0000000
B2   B   0.277272257383788   0.055246089450828   0.875000000000000   1.0000000
B2   B   0.777194199619585   0.555263766476496   0.875000000000000   1.0000000
B2   B   0.610575923891183   0.055224077363438   0.875000000000000   1.0000000
B2   B   0.943947608246053   0.055226361605201   0.875000000000000   1.0000000
B2   B   0.055601935428144   0.111112720656795   0.124527516223769   1.0000000
B2   B   0.555567426140687   0.610974537786319   0.122679406408491   1.0000000
B2   B   0.388947794737704   0.111235293176638   0.124066475243188   1.0000000
B2   B   0.888707570851210   0.611020452092528   0.123906220208233   1.0000000
B2   B   0.722207472268555   0.111064777091383   0.124118487486032   1.0000000
B2   B   0.055444377878113   0.777687722843386   0.625474128404511   1.0000000
B2   B   0.388888735328442   0.777687963195706   0.625357669206881   1.0000000
B2   B   0.222391843746875   0.277862588540093   0.625866013256975   1.0000000
B2   B   0.722117355481077   0.777650481351561   0.626469593427665   1.0000000
B2   B   0.555567426140687   0.277926221687315   0.627320593592025   1.0000000
B2   B   0.888920174860959   0.277788176913967   0.625806872816420   1.0000000
B2   B   0.222173712354867   0.777753522843450   0.124804674958008   1.0000000
B2   B   0.055601935428146   0.277822548104721   0.124527516223769   1.0000000
B2   B   0.388962472386930   0.277985546585351   0.123011719770109   1.0000000
B2   B   0.555540781009474   0.777708741551253   0.124025000633463   1.0000000
B2   B   0.888736811020545   0.777699511396895   0.124016512910985   1.0000000
B2   B   0.722117355481077   0.277800207461976   0.123530406572379   1.0000000
B2   B   0.055532834820186   0.944509985716534   0.625435427204138   1.0000000
B2   B   0.388888735328442   0.944534105466716   0.625357669206881   1.0000000
B2   B   0.222296861002979   0.444396340758402   0.625549130300811   1.0000000
B2   B   0.555367116181525   0.444350224757427   0.626879217948969   1.0000000
B2   B   0.722207472268555   0.944476028510581   0.625881512514160   1.0000000
B2   B   0.888736811020545   0.444370632957233   0.625983487088773   1.0000000
B2   B   0.055532834820186   0.444356182437111   0.124564572795936   1.0000000
B2   B   0.222285844100479   0.944537778865140   0.124674444659574   1.0000000
B2   B   0.555609700483305   0.944471516907743   0.124430240121550   1.0000000
B2   B   0.388962472386930   0.444310259135260   0.123011719770109   1.0000000
B2   B   0.888920174860959   0.944465331280139   0.124193127184052   1.0000000
B2   B   0.721915200780284   0.444272432126491   0.122692919498296   1.0000000
B2   B   0.222285844100479   0.611081398569228   0.625325555340483   1.0000000
B2   B   0.055601935428144   0.111112720656796   0.625472483776403   1.0000000
B2   B   0.555567426140686   0.610974537786316   0.627320593592025   1.0000000
B2   B   0.388947794737703   0.111235293176638   0.625933524756552   1.0000000
B2   B   0.888707570851210   0.611020452092528   0.626093779792203   1.0000000
B2   B   0.055444377878113   0.611089988367959   0.124525871595767   1.0000000
B2   B   0.722207472268555   0.111064777091383   0.625881512514160   1.0000000
B2   B   0.222296861002979   0.111233853578038   0.124450869699619   1.0000000
B2   B   0.388947794737709   0.611045834894882   0.124066475243193   1.0000000
B2   B   0.721915200780284   0.610976101987331   0.122692919498298   1.0000000
B2   B   0.555540781009474   0.111165372792050   0.124025000633463   1.0000000
B2   B   0.388947794737704   0.611045834894883   0.625933524756552   1.0000000
B2   B   0.888898023827635   0.111115678580315   0.124313792525152   1.0000000
B2   B   0.222173712354864   0.777753522843450   0.625195325041634   1.0000000
B2   B   0.055601935428146   0.277822548104721   0.625472483776403   1.0000000
B2   B   0.388962472386930   0.277985546585351   0.626988280229705   1.0000000
B2   B   0.555540781009474   0.777708741551253   0.625974999366198   1.0000000
B2   B   0.888736811020545   0.777699511396895   0.625983487088773   1.0000000
B2   B   0.722117355481077   0.277800207461976   0.626469593427665   1.0000000
B2   B   0.055444377878114   0.777687722843386   0.124525871595767   1.0000000
B2   B   0.388888735328442   0.777687963195706   0.124642330793623   1.0000000
B2   B   0.222391843746876   0.277862588540093   0.124133986743281   1.0000000
B2   B   0.722117355481077   0.777650481351561   0.123530406572378   1.0000000
B2   B   0.555567426140687   0.277926221687315   0.122679406408493   1.0000000
B2   B   0.888920174860959   0.277788176913967   0.124193127184052   1.0000000
B2   B   0.055532834820186   0.444356182437092   0.625435427204138   1.0000000
B2   B   0.222285844100479   0.944537778865140   0.625325555340483   1.0000000
B2   B   0.555609700483305   0.944471516907743   0.625569759877901   1.0000000
B2   B   0.388962472386930   0.444310259135260   0.626988280229705   1.0000000
B2   B   0.888920174860959   0.944465331280139   0.625806872816420   1.0000000
B2   B   0.055532834820186   0.944509985716531   0.124564572795936   1.0000000
B2   B   0.721915200780284   0.444272432126491   0.627307080501760   1.0000000
B2   B   0.388888735328441   0.944534105466716   0.124642330793623   1.0000000
B2   B   0.222296861002979   0.444396340758402   0.124450869699619   1.0000000
B2   B   0.222285844100479   0.611081398569228   0.124674444659573   1.0000000
B2   B   0.555367116181525   0.444350224757427   0.123120782051199   1.0000000
B2   B   0.722207472268555   0.944476028510581   0.124118487485990   1.0000000
B2   B   0.888736811020545   0.444370632957233   0.124016512910985   1.0000000
B2   B   0.055444377878113   0.611089988367959   0.625474128404511   1.0000000
B2   B   0.222296861002979   0.111233853578038   0.625549130300811   1.0000000
B2   B   0.721915200780284   0.610976101987331   0.627307080501760   1.0000000
B2   B   0.555540781009474   0.111165372792050   0.625974999366198   1.0000000
B2   B   0.888898023827635   0.111115678580315   0.625686207474717   1.0000000


