data_1
_audit_creation_method   'vasp2cif'
_cell_length_a    14.93631414619966
_cell_length_b    14.936314146199727
_cell_length_c    13.341276283792837
_cell_angle_alpha    90.0
_cell_angle_beta    90.0
_cell_angle_gamma    119.99999999999984

_symmetry_space_group_name_H-M    'P 1'
loop_
_atom_site_label
_atom_site_type_symbol
_atom_site_fract_x
_atom_site_fract_y
_atom_site_fract_z
_atom_site_occupancy
N2   N   0.444444444444443   0.388888888888886   0.375000000000000   1.0000000
N2   N   0.111108851391663   0.055557654109581   0.125026922797816   1.0000000
N2   N   0.611099880417083   0.555565645259496   0.125102314587146   1.0000000
N2   N   0.444448802717917   0.055557654109581   0.125026922797816   1.0000000
N2   N   0.944441296496059   0.555554354351124   0.125007886056530   1.0000000
N2   N   0.777777777777779   0.055555555555557   0.124995569896635   1.0000000
N2   N   0.111111111111114   0.722222222222221   0.624999967166800   1.0000000
N2   N   0.444448802717917   0.722224481941672   0.624973077202184   1.0000000
N2   N   0.277767688073833   0.222233452916253   0.624897685412854   1.0000000
N2   N   0.777775679223755   0.722224481941672   0.624973077202184   1.0000000
N2   N   0.611124246556559   0.222209086776777   0.625021222242191   1.0000000
N2   N   0.944435734015941   0.222220195685769   0.624992854347640   1.0000000
N2   N   0.277778978982211   0.722220275478271   0.125007886056530   1.0000000
N2   N   0.111084840220226   0.222209086776777   0.124978777757809   1.0000000
N2   N   0.444465764842414   0.222233452916253   0.125102314587146   1.0000000
N2   N   0.611124246556559   0.722248493113110   0.124978777757809   1.0000000
N2   N   0.944441296496059   0.722220275478271   0.125007886056530   1.0000000
N2   N   0.777784461669829   0.222220195685769   0.125007145652360   1.0000000
N2   N   0.111113057855065   0.888892036837270   0.624992113943470   1.0000000
N2   N   0.444442883248439   0.888888108290884   0.624986051804503   1.0000000
N2   N   0.277767688073833   0.388867568490915   0.624897685412854   1.0000000
N2   N   0.611099880417083   0.388867568490915   0.624897685412854   1.0000000
N2   N   0.777784461669829   0.888897599317388   0.624992854347640   1.0000000
N2   N   0.944445225042445   0.388890450084889   0.624986051804503   1.0000000
N2   N   0.111108851391663   0.388884530615411   0.125026922797816   1.0000000
N2   N   0.277778978982211   0.888892036837270   0.125007886056530   1.0000000
N2   N   0.611113137647566   0.888897599317388   0.125007145652360   1.0000000
N2   N   0.444444444444443   0.388888888888886   0.125156516609830   1.0000000
N2   N   0.944445225042445   0.888888108290884   0.125013948195497   1.0000000
N2   N   0.777775679223755   0.388884530615411   0.125026922797816   1.0000000
N2   N   0.277784022128624   0.555549311204712   0.624974302440047   1.0000000
N2   N   0.111108851391663   0.055557654109581   0.624973077202184   1.0000000
N2   N   0.611099880417083   0.555565645259496   0.624897685412854   1.0000000
N2   N   0.444448802717917   0.055557654109581   0.624973077202184   1.0000000
N2   N   0.944441296496059   0.555554354351124   0.624992113943470   1.0000000
N2   N   0.111113057855065   0.555554354351124   0.125007886056530   1.0000000
N2   N   0.777777777777779   0.055555555555557   0.625004430103365   1.0000000
N2   N   0.277784022128624   0.055568044257247   0.125025697559953   1.0000000
N2   N   0.444465764842414   0.555565645259496   0.125102314587146   1.0000000
N2   N   0.777765289076089   0.555549311204712   0.125025697559953   1.0000000
N2   N   0.611113137647566   0.055548871663507   0.125007145652360   1.0000000
N2   N   0.444465764842414   0.555565645259496   0.624897685412854   1.0000000
N2   N   0.944435734015941   0.055548871663507   0.125007145652360   1.0000000
N2   N   0.277778978982211   0.722220275478271   0.624992113943470   1.0000000
N2   N   0.111084840220226   0.222209086776777   0.625021222242191   1.0000000
N2   N   0.444465764842414   0.222233452916253   0.624897685412854   1.0000000
N2   N   0.611124246556559   0.722248493113110   0.625021222242191   1.0000000
N2   N   0.944441296496059   0.722220275478271   0.624992113943470   1.0000000
N2   N   0.777784461669829   0.222220195685769   0.624992854347640   1.0000000
N2   N   0.111111111111114   0.722222222222221   0.125000032833201   1.0000000
N2   N   0.444448802717917   0.722224481941672   0.125026922797816   1.0000000
N2   N   0.277767688073833   0.222233452916253   0.125102314587146   1.0000000
N2   N   0.777775679223755   0.722224481941672   0.125026922797816   1.0000000
N2   N   0.611124246556559   0.222209086776777   0.124978777757809   1.0000000
N2   N   0.944435734015941   0.222220195685769   0.125007145652360   1.0000000
N2   N   0.111108851391663   0.388884530615411   0.624973077202184   1.0000000
N2   N   0.277778978982211   0.888892036837270   0.624992113943470   1.0000000
N2   N   0.611113137647566   0.888897599317388   0.624992854347640   1.0000000
N2   N   0.444444444444443   0.388888888888886   0.624843483390170   1.0000000
N2   N   0.944445225042445   0.888888108290884   0.624986051804503   1.0000000
N2   N   0.111113057855065   0.888892036837270   0.125007886056530   1.0000000
N2   N   0.777775679223755   0.388884530615411   0.624973077202184   1.0000000
N2   N   0.444442883248439   0.888888108290884   0.125013948195497   1.0000000
N2   N   0.277767688073833   0.388867568490915   0.125102314587146   1.0000000
N2   N   0.277784022128624   0.555549311204712   0.125025697559953   1.0000000
N2   N   0.611099880417083   0.388867568490915   0.125102314587146   1.0000000
N2   N   0.777784461669829   0.888897599317388   0.125007145652360   1.0000000
N2   N   0.944445225042445   0.388890450084889   0.125013948195497   1.0000000
N2   N   0.111113057855065   0.555554354351124   0.624992113943470   1.0000000
N2   N   0.277784022128624   0.055568044257247   0.624974302440047   1.0000000
N2   N   0.777765289076089   0.555549311204712   0.624974302440047   1.0000000
N2   N   0.611113137647566   0.055548871663507   0.624992854347640   1.0000000
N2   N   0.944435734015941   0.055548871663507   0.624992854347640   1.0000000
N2   N   0.055820002706057   0.111279250367603   0.375000000000000   1.0000000
N2   N   0.555496853215715   0.610993706431431   0.375000000000000   1.0000000
N2   N   0.388891857608616   0.112438973564264   0.375000000000000   1.0000000
N2   N   0.888559690328653   0.610946511830998   0.375000000000000   1.0000000
N2   N   0.722172088273845   0.111161245059490   0.375000000000000   1.0000000
N2   N   0.055555751289467   0.777777582043868   0.875000000000000   1.0000000
N2   N   0.388890470731337   0.777780815080552   0.875000000000000   1.0000000
N2   N   0.222220248470893   0.277776790902111   0.875000000000000   1.0000000
N2   N   0.722222687586476   0.777778553638995   0.875000000000000   1.0000000
N2   N   0.555556542431225   0.277776790902111   0.875000000000000   1.0000000
N2   N   0.888890071489115   0.277780142978244   0.875000000000000   1.0000000
N2   N   0.222298143589859   0.777815738461594   0.375000000000000   1.0000000
N2   N   0.055820002706057   0.277874085671790   0.375000000000000   1.0000000
N2   N   0.390261719395130   0.280523438790261   0.375000000000000   1.0000000
N2   N   0.555459247661546   0.777513330627279   0.375000000000000   1.0000000
N2   N   0.888467293611961   0.777415865055687   0.375000000000000   1.0000000
N2   N   0.722054082965733   0.277874085671790   0.375000000000000   1.0000000
N2   N   0.055552518252784   0.944442988984121   0.875000000000000   1.0000000
N2   N   0.388890470731337   0.944442988984121   0.875000000000000   1.0000000
N2   N   0.222222063282388   0.444445038241883   0.875000000000000   1.0000000
N2   N   0.555553488780448   0.444443411056885   0.875000000000000   1.0000000
N2   N   0.722222784991942   0.944445569983884   0.875000000000000   1.0000000
N2   N   0.888890344349208   0.444442862601992   0.875000000000000   1.0000000
N2   N   0.055917468277649   0.444384761889602   0.375000000000000   1.0000000
N2   N   0.222386821502338   0.944773643004676   0.375000000000000   1.0000000
N2   N   0.555477389849872   0.944405361591600   0.375000000000000   1.0000000
N2   N   0.390261719395130   0.443071613938198   0.375000000000000   1.0000000
N2   N   0.888927971741728   0.944405361591600   0.375000000000000   1.0000000
N2   N   0.720894359769071   0.444441475724712   0.375000000000000   1.0000000
N2   N   0.222222337998648   0.611110995334688   0.875000000000000   1.0000000
N2   N   0.055554779694341   0.111110645746860   0.875000000000000   1.0000000
N2   N   0.555556542431225   0.611113084862442   0.875000000000000   1.0000000
N2   N   0.388888295091446   0.111110358373841   0.875000000000000   1.0000000
N2   N   0.888888657336040   0.611110995334688   0.875000000000000   1.0000000
N2   N   0.055517594871742   0.611035189743477   0.375000000000000   1.0000000
N2   N   0.722222784991942   0.111110548341394   0.875000000000000   1.0000000
N2   N   0.223547115955648   0.112438973564264   0.375000000000000   1.0000000
N2   N   0.388891857608616   0.609786217377687   0.375000000000000   1.0000000
N2   N   0.720894359769071   0.609786217377687   0.375000000000000   1.0000000
N2   N   0.555459247661546   0.111279250367603   0.375000000000000   1.0000000
N2   N   0.388888295091446   0.611111270050948   0.875000000000000   1.0000000
N2   N   0.888989156785631   0.111161245059490   0.375000000000000   1.0000000
N2   N   0.222221830754402   0.777777582043868   0.875000000000000   1.0000000
N2   N   0.055554779694341   0.277777467280816   0.875000000000000   1.0000000
N2   N   0.388889922276444   0.277779844552887   0.875000000000000   1.0000000
N2   N   0.555555866052519   0.777778553638995   0.875000000000000   1.0000000
N2   N   0.888890344349208   0.777780815080552   0.875000000000000   1.0000000
N2   N   0.722222687586476   0.277777467280816   0.875000000000000   1.0000000
N2   N   0.055517594871742   0.777815738461594   0.375000000000000   1.0000000
N2   N   0.388948571443726   0.777415865055687   0.375000000000000   1.0000000
N2   N   0.222339626901905   0.277836480117620   0.375000000000000   1.0000000
N2   N   0.722054082965733   0.777513330627279   0.375000000000000   1.0000000
N2   N   0.555496853215715   0.277836480117620   0.375000000000000   1.0000000
N2   N   0.888927971741728   0.277855943483463   0.375000000000000   1.0000000
N2   N   0.055552518252784   0.444442862601992   0.875000000000000   1.0000000
N2   N   0.222222337998648   0.944444675997289   0.875000000000000   1.0000000
N2   N   0.555553190355091   0.944443261844214   0.875000000000000   1.0000000
N2   N   0.388889922276444   0.444443411056885   0.875000000000000   1.0000000
N2   N   0.888890071489115   0.944443261844214   0.875000000000000   1.0000000
N2   N   0.055917468277649   0.944866039721368   0.375000000000000   1.0000000
N2   N   0.722222974959495   0.444445038241883   0.875000000000000   1.0000000
N2   N   0.388948571443726   0.944866039721368   0.375000000000000   1.0000000
N2   N   0.223547115955648   0.444441475724712   0.375000000000000   1.0000000
N2   N   0.222386821502338   0.610946511830998   0.375000000000000   1.0000000
N2   N   0.552809894543075   0.443071613938198   0.375000000000000   1.0000000
N2   N   0.722172088273845   0.944344176547698   0.375000000000000   1.0000000
N2   N   0.888467293611961   0.444384761889602   0.375000000000000   1.0000000
N2   N   0.055555751289467   0.611111502578934   0.875000000000000   1.0000000
N2   N   0.222222063282388   0.111110358373841   0.875000000000000   1.0000000
N2   N   0.722222974959495   0.611111270050948   0.875000000000000   1.0000000
N2   N   0.555555866052519   0.111110645746860   0.875000000000000   1.0000000
N2   N   0.888887763349445   0.111110548341394   0.875000000000000   1.0000000
B2   B   0.111907590797966   0.056289566328695   0.375000000000000   1.0000000
B2   B   0.609409782540191   0.554270975718170   0.375000000000000   1.0000000
B2   B   0.444381975530729   0.056289566328695   0.375000000000000   1.0000000
B2   B   0.944280454031721   0.555509803070811   0.375000000000000   1.0000000
B2   B   0.777777777777779   0.055555555555557   0.375000000000000   1.0000000
B2   B   0.111111111111114   0.722222222222221   0.875000000000000   1.0000000
B2   B   0.444443820180923   0.722220394870468   0.875000000000000   1.0000000
B2   B   0.277782993905749   0.222227120534401   0.875000000000000   1.0000000
B2   B   0.777776574689552   0.722220394870468   0.875000000000000   1.0000000
B2   B   0.611108960724498   0.222224372608838   0.875000000000000   1.0000000
B2   B   0.944446170992987   0.222224046867213   0.875000000000000   1.0000000
B2   B   0.277823530262525   0.722103984294246   0.375000000000000   1.0000000
B2   B   0.111372425038549   0.222352879185939   0.375000000000000   1.0000000
B2   B   0.444861193177980   0.223923550793145   0.375000000000000   1.0000000
B2   B   0.610980454147396   0.721960908294786   0.375000000000000   1.0000000
B2   B   0.944280454031721   0.722103984294246   0.375000000000000   1.0000000
B2   B   0.777732037905742   0.222336533253331   0.375000000000000   1.0000000
B2   B   0.111111264859765   0.888889549470498   0.875000000000000   1.0000000
B2   B   0.444443722549250   0.888888527941289   0.875000000000000   1.0000000
B2   B   0.277782993905749   0.388889206704677   0.875000000000000   1.0000000
B2   B   0.611106212798935   0.388889206704677   0.875000000000000   1.0000000
B2   B   0.777777875874225   0.888887162340341   0.875000000000000   1.0000000
B2   B   0.944444805392039   0.388889610784078   0.875000000000000   1.0000000
B2   B   0.111907590797966   0.388951357802600   0.375000000000000   1.0000000
B2   B   0.277823530262525   0.889052879301608   0.375000000000000   1.0000000
B2   B   0.610996800080005   0.888728837985740   0.375000000000000   1.0000000
B2   B   0.944478374174981   0.888854959158347   0.375000000000000   1.0000000
B2   B   0.777043767004640   0.388951357802600   0.375000000000000   1.0000000
B2   B   0.277779145119749   0.555554188213586   0.875000000000000   1.0000000
B2   B   0.111112938462868   0.055556758643784   0.875000000000000   1.0000000
B2   B   0.611106212798935   0.555550339427586   0.875000000000000   1.0000000
B2   B   0.444443820180923   0.055556758643784   0.875000000000000   1.0000000
B2   B   0.944443783862831   0.555555048722603   0.875000000000000   1.0000000
B2   B   0.111229349039090   0.555509803070811   0.375000000000000   1.0000000
B2   B   0.777777777777779   0.055555555555557   0.875000000000000   1.0000000
B2   B   0.278002720720825   0.056005441441644   0.375000000000000   1.0000000
B2   B   0.444861193177980   0.554270975718170   0.375000000000000   1.0000000
B2   B   0.777327891891692   0.555330612612510   0.375000000000000   1.0000000
B2   B   0.610996800080005   0.055601295427594   0.375000000000000   1.0000000
B2   B   0.444444126628652   0.555550339427586   0.875000000000000   1.0000000
B2   B   0.944604495347589   0.055601295427594   0.375000000000000   1.0000000
B2   B   0.277778284610733   0.722222068473571   0.875000000000000   1.0000000
B2   B   0.111115411884347   0.222224372608838   0.875000000000000   1.0000000
B2   B   0.444444126628652   0.222227120534401   0.875000000000000   1.0000000
B2   B   0.611108960724498   0.722217921448989   0.875000000000000   1.0000000
B2   B   0.944443783862831   0.722222068473571   0.875000000000000   1.0000000
B2   B   0.777777875874225   0.222224046867213   0.875000000000000   1.0000000
B2   B   0.111111111111114   0.722222222222221   0.375000000000000   1.0000000
B2   B   0.444381975530729   0.721425742535369   0.375000000000000   1.0000000
B2   B   0.279062357615166   0.223923550793145   0.375000000000000   1.0000000
B2   B   0.777043767004640   0.721425742535369   0.375000000000000   1.0000000
B2   B   0.610980454147396   0.222352879185939   0.375000000000000   1.0000000
B2   B   0.944604495347589   0.222336533253331   0.375000000000000   1.0000000
B2   B   0.111112938462868   0.388889513152405   0.875000000000000   1.0000000
B2   B   0.277778284610733   0.888889549470498   0.875000000000000   1.0000000
B2   B   0.611109286466123   0.888887162340341   0.875000000000000   1.0000000
B2   B   0.444444444444443   0.388888888888886   0.875000000000000   1.0000000
B2   B   0.944444805392039   0.888888527941289   0.875000000000000   1.0000000
B2   B   0.111229349039090   0.889052879301608   0.375000000000000   1.0000000
B2   B   0.777776574689552   0.388889513152405   0.875000000000000   1.0000000
B2   B   0.444376584983373   0.888854959158347   0.375000000000000   1.0000000
B2   B   0.279062357615166   0.388472140155349   0.375000000000000   1.0000000
B2   B   0.278002720720825   0.555330612612510   0.375000000000000   1.0000000
B2   B   0.609409782540191   0.388472140155349   0.375000000000000   1.0000000
B2   B   0.777732037905742   0.888728837985740   0.375000000000000   1.0000000
B2   B   0.944478374174981   0.388956748349955   0.375000000000000   1.0000000
B2   B   0.111111264859765   0.555555048722603   0.875000000000000   1.0000000
B2   B   0.277779145119749   0.055558290239498   0.875000000000000   1.0000000
B2   B   0.777775043093837   0.555554188213586   0.875000000000000   1.0000000
B2   B   0.611109286466123   0.055555457459111   0.875000000000000   1.0000000
B2   B   0.944446170992987   0.055555457459111   0.875000000000000   1.0000000
B2   B   0.055494458343419   0.111006937671047   0.124991484520755   1.0000000
B2   B   0.555510529235932   0.611021058471863   0.125026125725252   1.0000000
B2   B   0.389001409941673   0.111177848990916   0.125033777735038   1.0000000
B2   B   0.888982002635252   0.611157667984294   0.124999224170202   1.0000000
B2   B   0.722173723296465   0.111159610036870   0.124993627148958   1.0000000
B2   B   0.055505391298689   0.777827942034646   0.625000832495878   1.0000000
B2   B   0.388838931753708   0.777676549471560   0.624996458589443   1.0000000
B2   B   0.222312274861473   0.277822804097404   0.624973874274748   1.0000000
B2   B   0.722326395662288   0.777838874989917   0.625008515479245   1.0000000
B2   B   0.555510529235932   0.277822804097404   0.624973874274748   1.0000000
B2   B   0.888838646368505   0.277677292737024   0.624999046630427   1.0000000
B2   B   0.222322550735950   0.777827942034646   0.124999167504122   1.0000000
B2   B   0.055494458343419   0.277820854005700   0.124991484520755   1.0000000
B2   B   0.388858477067126   0.277716954134252   0.125264653838035   1.0000000
B2   B   0.555512479327635   0.777838874989917   0.124991484520755   1.0000000
B2   B   0.888837617717845   0.777676549471560   0.125003541410558   1.0000000
B2   B   0.722326395662288   0.277820854005700   0.124991484520755   1.0000000
B2   B   0.055656783861776   0.944495715615483   0.624996458589443   1.0000000
B2   B   0.388838931753708   0.944495715615483   0.624996458589443   1.0000000
B2   B   0.222176439049236   0.444331923391655   0.624966222264962   1.0000000
B2   B   0.555616379199083   0.444474856266202   0.624735346161965   1.0000000
B2   B   0.722173723296465   0.944347446592930   0.625006372851042   1.0000000
B2   B   0.888837617717845   0.444494401579621   0.624996458589443   1.0000000
B2   B   0.055656783861776   0.444494401579621   0.125003541410558   1.0000000
B2   B   0.222175665349042   0.944351330698076   0.124999224170202   1.0000000
B2   B   0.555656040596312   0.944494686964824   0.125000953369573   1.0000000
B2   B   0.388858477067126   0.444474856266202   0.125264653838035   1.0000000
B2   B   0.888838646368505   0.944494686964824   0.125000953369573   1.0000000
B2   B   0.722155484342419   0.444331923391655   0.125033777735038   1.0000000
B2   B   0.222175665349042   0.611157667984294   0.625000775829798   1.0000000
B2   B   0.055494458343419   0.111006937671047   0.625008515479245   1.0000000
B2   B   0.555510529235932   0.611021058471863   0.624973874274748   1.0000000
B2   B   0.389001409941673   0.111177848990916   0.624966222264962   1.0000000
B2   B   0.888982002635252   0.611157667984294   0.625000775829798   1.0000000
B2   B   0.055505391298689   0.611010782597386   0.124999167504122   1.0000000
B2   B   0.722173723296465   0.111159610036870   0.625006372851042   1.0000000
B2   B   0.222176439049236   0.111177848990916   0.125033777735038   1.0000000
B2   B   0.389001409941673   0.611156894284099   0.125033777735038   1.0000000
B2   B   0.722155484342419   0.611156894284099   0.125033777735038   1.0000000
B2   B   0.555512479327635   0.111006937671047   0.124991484520755   1.0000000
B2   B   0.389001409941673   0.611156894284099   0.624966222264962   1.0000000
B2   B   0.888985886740398   0.111159610036870   0.124993627148958   1.0000000
B2   B   0.222322550735950   0.777827942034646   0.625000832495878   1.0000000
B2   B   0.055494458343419   0.277820854005700   0.625008515479245   1.0000000
B2   B   0.388858477067126   0.277716954134252   0.624735346161965   1.0000000
B2   B   0.555512479327635   0.777838874989917   0.625008515479245   1.0000000
B2   B   0.888837617717845   0.777676549471560   0.624996458589443   1.0000000
B2   B   0.722326395662288   0.277820854005700   0.625008515479245   1.0000000
B2   B   0.055505391298689   0.777827942034646   0.124999167504122   1.0000000
B2   B   0.388838931753708   0.777676549471560   0.125003541410558   1.0000000
B2   B   0.222312274861473   0.277822804097404   0.125026125725252   1.0000000
B2   B   0.722326395662288   0.777838874989917   0.124991484520755   1.0000000
B2   B   0.555510529235932   0.277822804097404   0.125026125725252   1.0000000
B2   B   0.888838646368505   0.277677292737024   0.125000953369573   1.0000000
B2   B   0.055656783861776   0.444494401579621   0.624996458589443   1.0000000
B2   B   0.222175665349042   0.944351330698076   0.625000775829798   1.0000000
B2   B   0.555656040596312   0.944494686964824   0.624999046630427   1.0000000
B2   B   0.388858477067126   0.444474856266202   0.624735346161965   1.0000000
B2   B   0.888838646368505   0.944494686964824   0.624999046630427   1.0000000
B2   B   0.055656783861776   0.944495715615483   0.125003541410558   1.0000000
B2   B   0.722155484342419   0.444331923391655   0.624966222264962   1.0000000
B2   B   0.388838931753708   0.944495715615483   0.125003541410558   1.0000000
B2   B   0.222176439049236   0.444331923391655   0.125033777735038   1.0000000
B2   B   0.222175665349042   0.611157667984294   0.124999224170202   1.0000000
B2   B   0.555616379199083   0.444474856266202   0.125264653838035   1.0000000
B2   B   0.722173723296465   0.944347446592930   0.124993627148958   1.0000000
B2   B   0.888837617717845   0.444494401579621   0.125003541410558   1.0000000
B2   B   0.055505391298689   0.611010782597386   0.625000832495878   1.0000000
B2   B   0.222176439049236   0.111177848990916   0.624966222264962   1.0000000
B2   B   0.722155484342419   0.611156894284099   0.624966222264962   1.0000000
B2   B   0.555512479327635   0.111006937671047   0.625008515479245   1.0000000
B2   B   0.888985886740398   0.111159610036870   0.625006372851042   1.0000000


