data_1
_audit_creation_method   'vasp2cif'
_cell_length_a    17.52789999999977
_cell_length_b    17.52789999999977
_cell_length_c    15.0
_cell_angle_alpha    90.0
_cell_angle_beta    90.0
_cell_angle_gamma    119.99999999999916

_symmetry_space_group_name_H-M    'P 1'
loop_
_atom_site_label
_atom_site_type_symbol
_atom_site_fract_x
_atom_site_fract_y
_atom_site_fract_z
_atom_site_occupancy
B2   B   0.904966323854755   0.953409345358901   0.109429099444751   1.0000000
B2   B   0.905064252850931   0.096169063809156   0.110889257382044   1.0000000
B2   B   0.905112893306381   0.238671178206113   0.113640134988291   1.0000000
B2   B   0.905151420279568   0.381038495317683   0.117946861566169   1.0000000
B2   B   0.904253067049662   0.523151276937382   0.116138386384107   1.0000000
B2   B   0.901192075535120   0.664551065435638   0.107999418253353   1.0000000
B2   B   0.902635622776413   0.808560048498004   0.107959577768512   1.0000000
B2   B   0.046321630810349   0.952120978422380   0.110365355107891   1.0000000
B2   B   0.047327680345165   0.095520384990605   0.109475537321074   1.0000000
B2   B   0.047724953257993   0.238560034052217   0.109178291843662   1.0000000
B2   B   0.047808951270559   0.381429916301528   0.111110049922226   1.0000000
B2   B   0.047281057156788   0.524066477738389   0.113878030100428   1.0000000
B2   B   0.045823946449611   0.666376450865860   0.112402316426421   1.0000000
B2   B   0.045212967851881   0.808674006955749   0.111219780078379   1.0000000
B2   B   0.188907346789662   0.952103227976375   0.110668714745024   1.0000000
B2   B   0.189796185581827   0.095163155856065   0.108750895963844   1.0000000
B2   B   0.189798603253090   0.237454510201998   0.107826662875522   1.0000000
B2   B   0.190393364986765   0.381045210363218   0.108309599917959   1.0000000
B2   B   0.190011055945560   0.524367782389704   0.109558356387901   1.0000000
B2   B   0.189389324128332   0.667055460587030   0.111238842555034   1.0000000
B2   B   0.188778446355157   0.809516036498247   0.111362984702890   1.0000000
B2   B   0.332034781873744   0.952502063984530   0.110299348638125   1.0000000
B2   B   0.332540902478634   0.095074030948057   0.108397819878771   1.0000000
B2   B   0.333532617107655   0.237847400949895   0.108787075906534   1.0000000
B2   B   0.331728757975067   0.378101509968629   0.115472156204881   1.0000000
B2   B   0.332373049652567   0.524267249737482   0.113907570713866   1.0000000
B2   B   0.332666999561551   0.667571902884140   0.110858463135696   1.0000000
B2   B   0.332111761327081   0.810106887471261   0.110391704608042   1.0000000
B2   B   0.475308301776973   0.953326853331360   0.110852195073357   1.0000000
B2   B   0.475565724675702   0.095091377183117   0.109707040548477   1.0000000
B2   B   0.476699820437883   0.237160821223655   0.103730775659285   1.0000000
B2   B   0.479234648359616   0.374670102816614   0.128316931420219   1.0000000
B2   B   0.476047621325645   0.671666864928015   0.110763441286605   1.0000000
B2   B   0.475590195931377   0.811996943232356   0.108060639119739   1.0000000
B2   B   0.618934434660779   0.954291415549612   0.109949658281705   1.0000000
B2   B   0.618767990624918   0.095578722191437   0.114176539269671   1.0000000
B2   B   0.619331512526623   0.237288874934192   0.114348974133872   1.0000000
B2   B   0.623836416575337   0.381167299444816   0.093727029781194   1.0000000
B2   B   0.624197228274243   0.674790968303960   0.105791799308946   1.0000000
B2   B   0.619896043163917   0.813525804248928   0.104626258746491   1.0000000
B2   B   0.762481059513214   0.954131320063150   0.108820823980303   1.0000000
B2   B   0.762123946574426   0.096123492560829   0.113162776264648   1.0000000
B2   B   0.762170672421303   0.238021652309185   0.118225159372194   1.0000000
B2   B   0.762466844140150   0.379977637519065   0.117567788018012   1.0000000
B2   B   0.759122186811164   0.518255327206471   0.093673856420371   1.0000000
B2   B   0.757526568521569   0.662560535394804   0.103850566721936   1.0000000
B2   B   0.763377544545739   0.811871763285324   0.104477043111858   1.0000000
As2   As   0.491755611664527   0.522406802267890   0.140844319208208   1.0000000
N2   N   0.951461744915596   0.904851513536721   0.109585003858650   1.0000000
N2   N   0.952572443041424   0.048641629465668   0.110321207754412   1.0000000
N2   N   0.952766734617787   0.191241383606103   0.110988217649142   1.0000000
N2   N   0.952999283666909   0.333657280084568   0.114351217252088   1.0000000
N2   N   0.952873708573900   0.476112697482334   0.117783645225264   1.0000000
N2   N   0.951264549867817   0.618576105209241   0.112210741576399   1.0000000
N2   N   0.950386910821116   0.760942348045500   0.109895918050882   1.0000000
N2   N   0.093754753998343   0.904393564250221   0.111112211379287   1.0000000
N2   N   0.094562334791565   0.047680490449428   0.109737946612478   1.0000000
N2   N   0.094868397279032   0.190586668454048   0.108298766409705   1.0000000
N2   N   0.095365518629419   0.333759508688756   0.108487420644396   1.0000000
N2   N   0.095201484924779   0.476625857892267   0.110935886334496   1.0000000
N2   N   0.094486227001224   0.619312778638129   0.112671854087618   1.0000000
N2   N   0.093784882956344   0.761799235062463   0.111718190069799   1.0000000
N2   N   0.236737954950331   0.904723913124956   0.110922846932745   1.0000000
N2   N   0.237058395983662   0.047341842072355   0.109490424841658   1.0000000
N2   N   0.237737658836814   0.190324569086058   0.107443277513497   1.0000000
N2   N   0.236980235185689   0.332266505338982   0.108625827867086   1.0000000
N2   N   0.237475019860280   0.476563541731110   0.108691809947977   1.0000000
N2   N   0.237474487077790   0.619682716202439   0.110307270574128   1.0000000
N2   N   0.236915629846832   0.762280102954659   0.111043856318338   1.0000000
N2   N   0.379867600711793   0.905182573481843   0.110490122168586   1.0000000
N2   N   0.379981732341501   0.047348834708096   0.109120931888938   1.0000000
N2   N   0.380564409199493   0.189786072176811   0.106704995980304   1.0000000
N2   N   0.381894745874102   0.332697777832651   0.116054689439207   1.0000000
N2   N   0.374708107777632   0.472292971116627   0.120562252084387   1.0000000
N2   N   0.380608185390059   0.620158969024560   0.113285496666958   1.0000000
N2   N   0.380077100781506   0.762935725004891   0.109675741187866   1.0000000
N2   N   0.523392657890151   0.906678814724759   0.109546968715099   1.0000000
N2   N   0.523290695739896   0.047844676390615   0.112163499348809   1.0000000
N2   N   0.523724593405274   0.189184581318451   0.107663266053871   1.0000000
N2   N   0.525268207231097   0.330832785544571   0.100495460544191   1.0000000
N2   N   0.529612371837818   0.453974631231173   0.183333416842347   1.0000000
N2   N   0.529965619181196   0.632967263006298   0.112944856243254   1.0000000
N2   N   0.523891223111886   0.766119530860614   0.105592045865808   1.0000000
N2   N   0.667212085582458   0.908049104513118   0.107638610222538   1.0000000
N2   N   0.666824206348448   0.048787499618274   0.112773807908250   1.0000000
N2   N   0.666928995743718   0.189783310914645   0.117370951893595   1.0000000
N2   N   0.667658312108486   0.330600478967795   0.115025866210504   1.0000000
N2   N   0.673583707522590   0.466328524404489   0.068160650564833   1.0000000
N2   N   0.664403873840215   0.623468836205859   0.106062080849774   1.0000000
N2   N   0.669349466293916   0.769129773579400   0.101563303556492   1.0000000
N2   N   0.810549187376911   0.907231040656292   0.107812979821507   1.0000000
N2   N   0.810047533921268   0.049087724312404   0.111172096766005   1.0000000
N2   N   0.810083818123131   0.190862573991938   0.115474576442723   1.0000000
N2   N   0.810470831562456   0.332621933018261   0.120525748156380   1.0000000
N2   N   0.810674814257217   0.474728291116086   0.115217971273862   1.0000000
N2   N   0.807095565729050   0.616144875339252   0.100846168847277   1.0000000
N2   N   0.808202848498247   0.761699902340733   0.104897841330170   1.0000000


