data_1
_audit_creation_method   'vasp2cif'
_cell_length_a    17.52789999999977
_cell_length_b    17.52789999999977
_cell_length_c    15.0
_cell_angle_alpha    90.0
_cell_angle_beta    90.0
_cell_angle_gamma    119.99999999999916

_symmetry_space_group_name_H-M    'P 1'
loop_
_atom_site_label
_atom_site_type_symbol
_atom_site_fract_x
_atom_site_fract_y
_atom_site_fract_z
_atom_site_occupancy
B2   B   0.906857599620316   0.954193007292062   0.110996669011060   1.0000000
B2   B   0.904364458787578   0.095637562408418   0.111015882765214   1.0000000
B2   B   0.903664994260069   0.238124463372786   0.111054633620841   1.0000000
B2   B   0.904219734248114   0.381043786779451   0.110979833821785   1.0000000
B2   B   0.906641297480204   0.524382563151516   0.111107207202548   1.0000000
B2   B   0.908644032723809   0.668159562099320   0.111159850710884   1.0000000
B2   B   0.909274793975892   0.812349421199218   0.111146292454824   1.0000000
B2   B   0.048380778606048   0.951621242589960   0.110993796434936   1.0000000
B2   B   0.045809013903937   0.093144421575684   0.110996669011060   1.0000000
B2   B   0.044889276488705   0.236368441415227   0.110978426238155   1.0000000
B2   B   0.045553029676577   0.380120856468945   0.110984622405394   1.0000000
B2   B   0.047438839435287   0.523618868656237   0.110991189791616   1.0000000
B2   B   0.049560789742905   0.666637191995260   0.111042638217442   1.0000000
B2   B   0.049646144424680   0.809422149013870   0.111011965622842   1.0000000
B2   B   0.190579872182136   0.950355876771322   0.111011965622842   1.0000000
B2   B   0.187652599996788   0.090727227220102   0.111146292454824   1.0000000
B2   B   0.184202105428931   0.231762156174675   0.111036087768070   1.0000000
B2   B   0.185520275007354   0.377501978600683   0.110906433997261   1.0000000
B2   B   0.187924798282199   0.522718913871858   0.110972598007626   1.0000000
B2   B   0.191685425571583   0.665944248954279   0.111038949291583   1.0000000
B2   B   0.191552290425362   0.808449730770643   0.110973564783092   1.0000000
B2   B   0.333364829201740   0.950441231453097   0.111042638217442   1.0000000
B2   B   0.331842459097677   0.091357988472191   0.111159850710884   1.0000000
B2   B   0.326046379964490   0.228553162364058   0.111014227285947   1.0000000
B2   B   0.321638877523611   0.370372779071210   0.110938131138783   1.0000000
B2   B   0.326575195169087   0.518983448696533   0.111027379303720   1.0000000
B2   B   0.334875303043631   0.665126718153363   0.111069576799066   1.0000000
B2   B   0.334057772242714   0.808316595624421   0.111038949291583   1.0000000
B2   B   0.476383152540760   0.952563181760722   0.110991189791616   1.0000000
B2   B   0.475619458045479   0.093360723715790   0.111107207202548   1.0000000
B2   B   0.474058962099421   0.232902130059679   0.110994266102524   1.0000000
B2   B   0.461574567247409   0.360008951793705   0.110747126582373   1.0000000
B2   B   0.481018572500471   0.673426826027914   0.111027379303720   1.0000000
B2   B   0.477283107325140   0.812077222913804   0.110972598007626   1.0000000
B2   B   0.619881164727059   0.954448991519426   0.110984622405394   1.0000000
B2   B   0.618958234416561   0.095782286947882   0.110979833821785   1.0000000
B2   B   0.618631751899527   0.237812433547138   0.111061850034794   1.0000000
B2   B   0.619028282878993   0.380973738317006   0.110826460112945   1.0000000
B2   B   0.639993069402301   0.538427453949591   0.110747126582373   1.0000000
B2   B   0.629629242124790   0.678363143673389   0.110938131138783   1.0000000
B2   B   0.622500042595320   0.814481746188651   0.110906433997261   1.0000000
B2   B   0.763633579780769   0.955112744707300   0.110978426238155   1.0000000
B2   B   0.761877557823218   0.096337026935928   0.111054633620841   1.0000000
B2   B   0.761497838209154   0.238504182986850   0.111020768046429   1.0000000
B2   B   0.762189587648861   0.381370269296477   0.111061850034794   1.0000000
B2   B   0.767099891136323   0.525943059097580   0.110994266102524   1.0000000
B2   B   0.771448858831944   0.673955641232507   0.111014227285947   1.0000000
B2   B   0.768239865021331   0.815799915767069   0.111036087768070   1.0000000
N2   N   0.954498063756956   0.906310782609529   0.111009025484255   1.0000000
N2   N   0.952010664802893   0.047990737115116   0.110971092767754   1.0000000
N2   N   0.950565696294953   0.190103972546908   0.111026804871330   1.0000000
N2   N   0.950764485234348   0.332975698646202   0.110998857879260   1.0000000
N2   N   0.952516222473500   0.476074186928796   0.110990170880817   1.0000000
N2   N   0.954574510152221   0.619387316125385   0.111121700024707   1.0000000
N2   N   0.955185855748928   0.762952256857379   0.111100937436873   1.0000000
N2   N   0.096026622023400   0.903974779894594   0.110982911600117   1.0000000
N2   N   0.093690619308474   0.045503338161049   0.111009025484255   1.0000000
N2   N   0.090735259363594   0.186882982854708   0.110992622239282   1.0000000
N2   N   0.091206408524442   0.331056547662708   0.110954291223825   1.0000000
N2   N   0.093172009178709   0.475227278829329   0.110980842491490   1.0000000
N2   N   0.096264019491183   0.618666164447789   0.111006455953606   1.0000000
N2   N   0.096688817341470   0.761490992665578   0.110983291864222   1.0000000
N2   N   0.238510409252422   0.903312584576528   0.110983291864222   1.0000000
N2   N   0.237049145060625   0.044815546169075   0.111100937436873   1.0000000
N2   N   0.232561778323298   0.184198248867388   0.111241205991850   1.0000000
N2   N   0.228120011500271   0.324735326119105   0.110857808370733   1.0000000
N2   N   0.231889191214594   0.473148303316385   0.110809383400693   1.0000000
N2   N   0.238664444681987   0.618126897639401   0.111048479992565   1.0000000
N2   N   0.238970481061995   0.761030920856009   0.111027404145818   1.0000000
N2   N   0.381335237470212   0.903737382426812   0.111006455953606   1.0000000
N2   N   0.380614085792618   0.045426891765782   0.111121700024707   1.0000000
N2   N   0.378663634697372   0.185908102762238   0.111142986243544   1.0000000
N2   N   0.370393328460944   0.321578320327255   0.110562221732144   1.0000000
N2   N   0.357134804027486   0.459195505655562   0.111274580520062   1.0000000
N2   N   0.382617338712285   0.617384063205714   0.111035988544079   1.0000000
N2   N   0.381874504278592   0.761336957236019   0.111048479992565   1.0000000
N2   N   0.524774123087671   0.906829392739287   0.110980842491490   1.0000000
N2   N   0.523927214988204   0.047485179444503   0.110990170880817   1.0000000
N2   N   0.523337299169484   0.188394395846527   0.111143083339589   1.0000000
N2   N   0.521970493693589   0.328402623151466   0.110610675473596   1.0000000
N2   N   0.540805896261437   0.642866597890514   0.111274580520062   1.0000000
N2   N   0.526853098600613   0.768112210703409   0.110809383400693   1.0000000
N2   N   0.668944854254295   0.908794993393550   0.110954291223825   1.0000000
N2   N   0.667025703270788   0.049236916683657   0.110998857879260   1.0000000
N2   N   0.666406848972885   0.191020672219362   0.110991206293986   1.0000000
N2   N   0.666301389160675   0.333700012756319   0.111044113139849   1.0000000
N2   N   0.671598778765532   0.478030908223414   0.110610675473596   1.0000000
N2   N   0.678423081589745   0.629608073457050   0.110562221732144   1.0000000
N2   N   0.675266075797889   0.771881390417731   0.110857808370733   1.0000000
N2   N   0.813118419063293   0.909266142554404   0.110992622239282   1.0000000
N2   N   0.809897429371090   0.049435705623052   0.111026804871330   1.0000000
N2   N   0.808855602167477   0.191145799750521   0.111079478979255   1.0000000
N2   N   0.808980729698635   0.333594552944110   0.110991206293986   1.0000000
N2   N   0.811607006071472   0.476664102747514   0.111143083339589   1.0000000
N2   N   0.814093299155760   0.621337767220625   0.111142986243544   1.0000000
N2   N   0.815803153050611   0.767439623594708   0.111241205991850   1.0000000
O2   O   0.463303935505334   0.536698085691664   0.112386371008608   1.0000000
Se2   Se   0.519482033600517   0.480519368316484   0.111458570235825   1.0000000


