data_1
_audit_creation_method   'vasp2cif'
_cell_length_a    17.52789999999977
_cell_length_b    17.52789999999977
_cell_length_c    15.0
_cell_angle_alpha    90.0
_cell_angle_beta    90.0
_cell_angle_gamma    119.99999999999916

_symmetry_space_group_name_H-M    'P 1'
loop_
_atom_site_label
_atom_site_type_symbol
_atom_site_fract_x
_atom_site_fract_y
_atom_site_fract_z
_atom_site_occupancy
B2   B   0.905913414487365   0.953194744360301   0.111072790418517   1.0000000
B2   B   0.904746226617130   0.095255794578868   0.111036903317025   1.0000000
B2   B   0.904349615942016   0.237889154816509   0.111088148684746   1.0000000
B2   B   0.904746226617130   0.380919125729259   0.111036903317025   1.0000000
B2   B   0.905913414487365   0.524149075375069   0.111072790418517   1.0000000
B2   B   0.905977227880380   0.667279276292923   0.111151299338170   1.0000000
B2   B   0.905977227880380   0.810128356835458   0.111151299338170   1.0000000
B2   B   0.047842079172563   0.952159942023441   0.111057573937564   1.0000000
B2   B   0.046807276835703   0.094088606708630   0.111072790418517   1.0000000
B2   B   0.046113085255153   0.236958811960439   0.111026794635225   1.0000000
B2   B   0.046113085255153   0.380584678541713   0.111026794635225   1.0000000
B2   B   0.046807276835703   0.524149075375069   0.111072790418517   1.0000000
B2   B   0.047842079172563   0.667114253953118   0.111057573937564   1.0000000
B2   B   0.048041704871289   0.809736910837648   0.111005359573268   1.0000000
B2   B   0.190265110358357   0.951960316324716   0.111005359573268   1.0000000
B2   B   0.189873664360545   0.094024793315616   0.111151299338170   1.0000000
B2   B   0.187180348793370   0.234496064397205   0.111080000561124   1.0000000
B2   B   0.186771167288140   0.379100786267571   0.111031105697719   1.0000000
B2   B   0.187180348793370   0.524114689644166   0.111080000561124   1.0000000
B2   B   0.189873664360545   0.667279276292923   0.111151299338170   1.0000000
B2   B   0.190265110358357   0.809736910837648   0.111005359573268   1.0000000
B2   B   0.332887767243880   0.952159942023441   0.111057573937564   1.0000000
B2   B   0.332722744904075   0.094024793315616   0.111151299338170   1.0000000
B2   B   0.332206680940391   0.235841745930785   0.110980813158654   1.0000000
B2   B   0.325626358796560   0.373040504154262   0.110862365356785   1.0000000
B2   B   0.325626358796560   0.524016259889298   0.110862365356785   1.0000000
B2   B   0.332206680940391   0.667795340256606   0.110980813158654   1.0000000
B2   B   0.332722744904075   0.810128356835458   0.111151299338170   1.0000000
B2   B   0.475852945821931   0.953194744360301   0.111072790418517   1.0000000
B2   B   0.475852945821931   0.094088606708630   0.111072790418517   1.0000000
B2   B   0.475887331552832   0.234496064397205   0.111080000561124   1.0000000
B2   B   0.475985761307699   0.373040504154262   0.110862365356785   1.0000000
B2   B   0.475985761307699   0.674375662400436   0.110862365356785   1.0000000
B2   B   0.475887331552832   0.812821672402635   0.111080000561124   1.0000000
B2   B   0.619417342654290   0.953888935940852   0.111026794635225   1.0000000
B2   B   0.619082895466745   0.095255794578868   0.111036903317025   1.0000000
B2   B   0.619417342654290   0.236958811960439   0.111026794635225   1.0000000
B2   B   0.620901234928435   0.379100786267571   0.111031105697719   1.0000000
B2   B   0.626961517041741   0.524016259889299   0.110862365356785   1.0000000
B2   B   0.626961517041741   0.674375662400436   0.110862365356785   1.0000000
B2   B   0.620901234928435   0.813230853907862   0.111031105697719   1.0000000
B2   B   0.763043209235563   0.953888935940852   0.111026794635225   1.0000000
B2   B   0.762112866379495   0.095652405253983   0.111088148684746   1.0000000
B2   B   0.762112866379495   0.237889154816509   0.111088148684746   1.0000000
B2   B   0.763043209235563   0.380584678541713   0.111026794635225   1.0000000
B2   B   0.765505956798799   0.524114689644166   0.111080000561124   1.0000000
B2   B   0.764160275265220   0.667795340256606   0.110980813158654   1.0000000
B2   B   0.765505956798799   0.812821672402635   0.111080000561124   1.0000000
N2   N   0.952855712273429   0.905008386137498   0.111086089415026   1.0000000
N2   N   0.952341844582972   0.047659557335033   0.111003583900112   1.0000000
N2   N   0.951691249604726   0.190114937734075   0.111028609557440   1.0000000
N2   N   0.951691249604726   0.333003293988651   0.111028609557440   1.0000000
N2   N   0.952341844582972   0.476109269365938   0.111003583900112   1.0000000
N2   N   0.952855712273429   0.619276019810929   0.111086089415026   1.0000000
N2   N   0.952959639790789   0.762194166732897   0.111161199162412   1.0000000
N2   N   0.095326360496312   0.904675041421688   0.110923364319685   1.0000000
N2   N   0.094993015780500   0.047145689644576   0.111086089415026   1.0000000
N2   N   0.093307194085405   0.188813957232431   0.111061475866723   1.0000000
N2   N   0.093022834900988   0.332225764287495   0.110973550211958   1.0000000
N2   N   0.093307194085405   0.475921930526975   0.111061475866723   1.0000000
N2   N   0.094993015780500   0.619276019810929   0.111086089415026   1.0000000
N2   N   0.095326360496312   0.762081724305630   0.110923364319685   1.0000000
N2   N   0.237919677612375   0.904675041421688   0.110923364319685   1.0000000
N2   N   0.237807235185110   0.047041762127217   0.111161199162412   1.0000000
N2   N   0.237282679867907   0.189342432789715   0.111096716091260   1.0000000
N2   N   0.232823197468396   0.329167681659549   0.111010134687543   1.0000000
N2   N   0.232823197468396   0.475084209482841   0.111010134687543   1.0000000
N2   N   0.237282679867907   0.619368940753187   0.111096716091260   1.0000000
N2   N   0.237807235185110   0.762194166732897   0.111161199162412   1.0000000
N2   N   0.380725382107071   0.905008386137498   0.111086089415026   1.0000000
N2   N   0.380725382107071   0.047145689644576   0.111086089415026   1.0000000
N2   N   0.380632461164811   0.189342432789715   0.111096716091260   1.0000000
N2   N   0.380426393988743   0.332280079734482   0.110648833361636   1.0000000
N2   N   0.361405737383569   0.466417215528782   0.110830133486918   1.0000000
N2   N   0.380426393988743   0.619575007929258   0.110648833361636   1.0000000
N2   N   0.380632461164811   0.762718722050100   0.111096716091260   1.0000000
N2   N   0.524079471390021   0.906694207832593   0.111061475866723   1.0000000
N2   N   0.523892132551060   0.047659557335033   0.111003583900112   1.0000000
N2   N   0.524079471390021   0.188813957232431   0.111061475866723   1.0000000
N2   N   0.524917192434156   0.329167681659549   0.111010134687543   1.0000000
N2   N   0.533584186388216   0.466417215528782   0.110830133486918   1.0000000
N2   N   0.533584186388216   0.638595664534429   0.110830133486918   1.0000000
N2   N   0.524917192434156   0.767178204449610   0.111010134687543   1.0000000
N2   N   0.667775637629503   0.906978567017010   0.110973550211958   1.0000000
N2   N   0.666998107928346   0.048310152313279   0.111028609557440   1.0000000
N2   N   0.666998107928346   0.190114937734075   0.111028609557440   1.0000000
N2   N   0.667775637629503   0.332225764287495   0.110973550211958   1.0000000
N2   N   0.670833720257447   0.475084209482841   0.111010134687543   1.0000000
N2   N   0.667721322182515   0.619575007929258   0.110648833361636   1.0000000
N2   N   0.670833720257447   0.767178204449610   0.111010134687543   1.0000000
N2   N   0.811187444685568   0.906694207832593   0.111061475866723   1.0000000
N2   N   0.809886464183924   0.048310152313279   0.111028609557440   1.0000000
N2   N   0.809525273905997   0.190476128012001   0.111132527136751   1.0000000
N2   N   0.809886464183924   0.333003293988651   0.111028609557440   1.0000000
N2   N   0.811187444685568   0.475921930526975   0.111061475866723   1.0000000
N2   N   0.810658969128283   0.619368940753187   0.111096716091260   1.0000000
N2   N   0.810658969128283   0.762718722050100   0.111096716091260   1.0000000
Se2   Se   0.476191212381998   0.523810808815000   0.110748110861265   1.0000000


