data_1
_audit_creation_method   'vasp2cif'
_cell_length_a    17.52789999999977
_cell_length_b    17.52789999999977
_cell_length_c    15.0
_cell_angle_alpha    90.0
_cell_angle_beta    90.0
_cell_angle_gamma    119.99999999999916

_symmetry_space_group_name_H-M    'P 1'
loop_
_atom_site_label
_atom_site_type_symbol
_atom_site_fract_x
_atom_site_fract_y
_atom_site_fract_z
_atom_site_occupancy
Al2   Al   0.561785790693649   0.438215611223289   0.111002580782654   1.0000000
B2   B   0.906323052872133   0.955536766728281   0.110924742583216   1.0000000
B2   B   0.903481559446169   0.096520461749813   0.111011789698001   1.0000000
B2   B   0.903113202128940   0.238828132575431   0.111006407025424   1.0000000
B2   B   0.904783637567287   0.381857788427925   0.110864486032752   1.0000000
B2   B   0.907321565168693   0.525444282953516   0.110872088623255   1.0000000
B2   B   0.909679048054916   0.670504345507908   0.111007039214354   1.0000000
B2   B   0.910388217672148   0.815018482119136   0.110939113376121   1.0000000
B2   B   0.047703373366589   0.952298647829387   0.110839067249860   1.0000000
B2   B   0.044465254467707   0.093678968323798   0.110924742583216   1.0000000
B2   B   0.043666410901270   0.237163878301762   0.110907196752554   1.0000000
B2   B   0.044965171163039   0.381085730857939   0.110891902786467   1.0000000
B2   B   0.047495454991694   0.524558457225920   0.110873609552331   1.0000000
B2   B   0.049400728524741   0.667545877060250   0.110918764307139   1.0000000
B2   B   0.049689130015766   0.810467234564587   0.110921222891932   1.0000000
B2   B   0.189534786631410   0.950312891180262   0.110921222891932   1.0000000
B2   B   0.184983539076862   0.089613803523882   0.110939113376121   1.0000000
B2   B   0.181849648990377   0.231924001070864   0.110907234004442   1.0000000
B2   B   0.183765012333942   0.378675852185506   0.110851201382146   1.0000000
B2   B   0.187662648971388   0.523671691128787   0.110903985696461   1.0000000
B2   B   0.191079987382195   0.666695297571243   0.111055104006563   1.0000000
B2   B   0.191039828488138   0.808962192707893   0.111020549827084   1.0000000
B2   B   0.332456144136712   0.950601292671227   0.110918764307139   1.0000000
B2   B   0.329497675689153   0.090322973141054   0.111007039214354   1.0000000
B2   B   0.320611620660366   0.225665155940860   0.111379909844011   1.0000000
B2   B   0.317095976280828   0.370731204106115   0.111328389184224   1.0000000
B2   B   0.326717871085301   0.521226594350034   0.111417310465881   1.0000000
B2   B   0.333763035047645   0.666238986149282   0.111129221339656   1.0000000
B2   B   0.333306723625733   0.808922033813797   0.111055104006563   1.0000000
B2   B   0.475443563971099   0.952506566204360   0.110873609552331   1.0000000
B2   B   0.474557738243474   0.092680456027333   0.110872088623255   1.0000000
B2   B   0.470332325348467   0.229006239107018   0.111779724036766   1.0000000
B2   B   0.448759471322997   0.355319877905809   0.108758622014137   1.0000000
B2   B   0.478775426846960   0.673284150111739   0.111417310465881   1.0000000
B2   B   0.476330330068176   0.812339372224624   0.110903985696461   1.0000000
B2   B   0.618916290338075   0.955036850032983   0.110891902786467   1.0000000
B2   B   0.618144232768075   0.095218383628670   0.110864486032752   1.0000000
B2   B   0.618723767447059   0.235946303109903   0.111013308842491   1.0000000
B2   B   0.623711988701453   0.376290032494503   0.111654593837514   1.0000000
B2   B   0.644682143290138   0.551242549874019   0.108758622014137   1.0000000
B2   B   0.629270817089836   0.682906044916232   0.111328389184224   1.0000000
B2   B   0.621326169010558   0.816237008862108   0.110851201382146   1.0000000
B2   B   0.762838142894148   0.956335610294698   0.110907196752554   1.0000000
B2   B   0.761173888620574   0.096888819067060   0.111006407025424   1.0000000
B2   B   0.761430103564825   0.238571917631155   0.110933491749595   1.0000000
B2   B   0.764055718086081   0.381278253748947   0.111013308842491   1.0000000
B2   B   0.770995782089014   0.529669695848472   0.111779724036766   1.0000000
B2   B   0.774336865255149   0.679390400536602   0.111379909844011   1.0000000
B2   B   0.768078020125047   0.818152372205666   0.110907234004442   1.0000000
N2   N   0.954431699985279   0.908222175309422   0.110826949043728   1.0000000
N2   N   0.951009259512527   0.048992142405466   0.110984736923891   1.0000000
N2   N   0.949733601612728   0.190829675718366   0.110995558327572   1.0000000
N2   N   0.950728453407705   0.333640203111149   0.110927695177422   1.0000000
N2   N   0.953075434363263   0.476990761885091   0.110781173965358   1.0000000
N2   N   0.954846942857327   0.620761679011754   0.110851079979753   1.0000000
N2   N   0.955713127084946   0.765027179488476   0.110864775874173   1.0000000
N2   N   0.095357207088546   0.904644194829388   0.110895716798749   1.0000000
N2   N   0.091779226608538   0.045569701932659   0.110826949043728   1.0000000
N2   N   0.088946202395668   0.187394340918353   0.110853234355199   1.0000000
N2   N   0.090085179070229   0.331958672341272   0.110856783422786   1.0000000
N2   N   0.093213122643980   0.476147471960449   0.110887488824922   1.0000000
N2   N   0.096090300052539   0.619521813702257   0.110936271264450   1.0000000
N2   N   0.096465161386664   0.762301822170714   0.110967971389449   1.0000000
N2   N   0.237699579747261   0.903536240531342   0.110967971389449   1.0000000
N2   N   0.234974222429511   0.044288274833094   0.110864775874173   1.0000000
N2   N   0.228117939742277   0.182461679460443   0.111117807324726   1.0000000
N2   N   0.225169240912481   0.325599572265532   0.110872495828833   1.0000000
N2   N   0.232077011345573   0.474414086737762   0.110795972157988   1.0000000
N2   N   0.238109536488559   0.618909011978042   0.111042488600870   1.0000000
N2   N   0.238447187926441   0.761554213991513   0.111075483139877   1.0000000
N2   N   0.380479588215729   0.903911101865458   0.110936271264450   1.0000000
N2   N   0.379239722906169   0.045154459060697   0.110851079979753   1.0000000
N2   N   0.374786333660063   0.184249105376151   0.111301703002937   1.0000000
N2   N   0.360144437910662   0.317936946171694   0.111021048768295   1.0000000
N2   N   0.360112072191896   0.463114863618063   0.112222515902125   1.0000000
N2   N   0.381530780764315   0.618470621153735   0.111289126916765   1.0000000
N2   N   0.381092389939965   0.761891865429459   0.111042488600870   1.0000000
N2   N   0.523853929956526   0.906788279274040   0.110887488824915   1.0000000
N2   N   0.523010640031873   0.046925967554733   0.110781173965357   1.0000000
N2   N   0.522262714881510   0.186898320925340   0.111086988494320   1.0000000
N2   N   0.515067449423217   0.321868925690430   0.112127943699130   1.0000000
N2   N   0.536886538298946   0.639889329726077   0.112222515902125   1.0000000
N2   N   0.525587315179293   0.767924390572417   0.110795972157981   1.0000000
N2   N   0.668042729575725   0.909916222847792   0.110856783422787   1.0000000
N2   N   0.666361198805890   0.049272948510361   0.110927695177422   1.0000000
N2   N   0.666322277869664   0.189711038463081   0.110857105680527   1.0000000
N2   N   0.669783863623316   0.330217538293683   0.111124288230553   1.0000000
N2   N   0.678132476226594   0.484933952493722   0.112127943699130   1.0000000
N2   N   0.682064455745324   0.639856964007279   0.111021048768295   1.0000000
N2   N   0.674401829651419   0.774832161005458   0.110872495828833   1.0000000
N2   N   0.812607060999706   0.911055199522361   0.110853234355199   1.0000000
N2   N   0.809171726199648   0.050267800305241   0.110995558327572   1.0000000
N2   N   0.808591110404792   0.191410291513223   0.111010376485718   1.0000000
N2   N   0.810290363454904   0.333679124047254   0.110857105680527   1.0000000
N2   N   0.813103080992656   0.477738687035531   0.111086988494320   1.0000000
N2   N   0.815752296541825   0.625215068257933   0.111301703002937   1.0000000
N2   N   0.817539722457587   0.771883462175700   0.111117807324726   1.0000000
Sb2   Sb   0.488287243205466   0.511714777991549   0.112556149605483   1.0000000


