data_1
_audit_creation_method   'vasp2cif'
_cell_length_a    14.93631414619966
_cell_length_b    14.936314146199727
_cell_length_c    13.341276283792837
_cell_angle_alpha    90.0
_cell_angle_beta    90.0
_cell_angle_gamma    119.99999999999984

_symmetry_space_group_name_H-M    'P 1'
loop_
_atom_site_label
_atom_site_type_symbol
_atom_site_fract_x
_atom_site_fract_y
_atom_site_fract_z
_atom_site_occupancy
Pb2   Pb   0.496226318746989   0.414779826040156   0.375000000000000   1.0000000
N2   N   0.111231995756552   0.055603261312257   0.125099623008510   1.0000000
N2   N   0.611308894075265   0.555755704634605   0.120519145669430   1.0000000
N2   N   0.444606196441247   0.055629201560084   0.124872665321609   1.0000000
N2   N   0.944566605069848   0.555615386659380   0.124939398625345   1.0000000
N2   N   0.777943772608534   0.055638552970951   0.125014733828713   1.0000000
N2   N   0.111248628625419   0.722290980979369   0.624896197932210   1.0000000
N2   N   0.444606196441247   0.722310328214485   0.625127334678402   1.0000000
N2   N   0.277840151909031   0.222243951802473   0.626255705658844   1.0000000
N2   N   0.777902977285796   0.722302019493926   0.625790630628640   1.0000000
N2   N   0.611266110625322   0.222269784567888   0.625957486090140   1.0000000
N2   N   0.944584897353569   0.222294342822233   0.624922868521220   1.0000000
N2   N   0.277930690916946   0.722303199706493   0.125087601578160   1.0000000
N2   N   0.111213571523980   0.222273452428648   0.124944964219282   1.0000000
N2   N   0.444595529506008   0.222302895506836   0.123220535100578   1.0000000
N2   N   0.611266110625322   0.722329659390778   0.124042513909867   1.0000000
N2   N   0.944566605069848   0.722284551743763   0.124939398625345   1.0000000
N2   N   0.777933482487514   0.222284449222376   0.124900820545343   1.0000000
N2   N   0.111250229394801   0.888952329392681   0.624873252216914   1.0000000
N2   N   0.444608589310193   0.888970961321745   0.624929447928891   1.0000000
N2   N   0.277840151909031   0.388929533439920   0.626255705658844   1.0000000
N2   N   0.611308894075265   0.388886522774000   0.629480854330609   1.0000000
N2   N   0.777933482487514   0.888982366598449   0.625099179454704   1.0000000
N2   N   0.944579127550925   0.388959758367349   0.624888911929780   1.0000000
N2   N   0.111231995756552   0.388962067777598   0.125099623008510   1.0000000
N2   N   0.277930690916946   0.888960824543783   0.125087601578160   1.0000000
N2   N   0.611276133109510   0.888982858267878   0.124997461006742   1.0000000
N2   N   0.444329610660079   0.388831471996698   0.119628428124958   1.0000000
N2   N   0.944579127550925   0.888952702516874   0.125111088070243   1.0000000
N2   N   0.777902977285796   0.388934291125139   0.124209369371385   1.0000000
N2   N   0.277926824879906   0.555635976541543   0.625115120347169   1.0000000
N2   N   0.111231995756552   0.055603261312257   0.624900376991496   1.0000000
N2   N   0.611308894075265   0.555755704634605   0.629480854330609   1.0000000
N2   N   0.444606196441247   0.055629201560084   0.625127334678402   1.0000000
N2   N   0.944566605069848   0.555615386659380   0.625060601374638   1.0000000
N2   N   0.111250229394801   0.555631233335494   0.125126747783091   1.0000000
N2   N   0.777943772608534   0.055638552970950   0.624985266171296   1.0000000
N2   N   0.277926824879906   0.055624181671694   0.124884879652803   1.0000000
N2   N   0.444595529506008   0.555625967332518   0.123220535100578   1.0000000
N2   N   0.777893565349126   0.555613449341221   0.123491764865266   1.0000000
N2   N   0.611276133109510   0.055626608174974   0.124997461006742   1.0000000
N2   N   0.444595529506008   0.555625967332518   0.626779464899401   1.0000000
N2   N   0.944584897353569   0.055623887864676   0.125077131478793   1.0000000
N2   N   0.277930690916946   0.722303199706493   0.624912398421822   1.0000000
N2   N   0.111213571523980   0.222273452428648   0.625055035780701   1.0000000
N2   N   0.444595529506008   0.222302895506836   0.626779464899401   1.0000000
N2   N   0.611266110625322   0.722329659390778   0.625957486090140   1.0000000
N2   N   0.944566605069848   0.722284551743763   0.625060601374638   1.0000000
N2   N   0.777933482487514   0.222284449222376   0.625099179454704   1.0000000
N2   N   0.111248628625419   0.722290980979369   0.125103802067785   1.0000000
N2   N   0.444606196441247   0.722310328214485   0.124872665321609   1.0000000
N2   N   0.277840151909031   0.222243951802473   0.123744294341170   1.0000000
N2   N   0.777902977285796   0.722302019493926   0.124209369371385   1.0000000
N2   N   0.611266110625322   0.222269784567888   0.124042513909867   1.0000000
N2   N   0.944584897353569   0.222294342822233   0.125077131478793   1.0000000
N2   N   0.111231995756552   0.388962067777598   0.624900376991496   1.0000000
N2   N   0.277930690916946   0.888960824543783   0.624912398421822   1.0000000
N2   N   0.611276133109510   0.888982858267878   0.625002538993246   1.0000000
N2   N   0.444329610660079   0.388831471996698   0.630371571875048   1.0000000
N2   N   0.944579127550925   0.888952702516874   0.624888911929780   1.0000000
N2   N   0.111250229394801   0.888952329392681   0.125126747783091   1.0000000
N2   N   0.777902977285796   0.388934291125139   0.625790630628640   1.0000000
N2   N   0.444608589310193   0.888970961321745   0.125070552071111   1.0000000
N2   N   0.277840151909031   0.388929533439920   0.123744294341170   1.0000000
N2   N   0.277926824879906   0.555635976541543   0.124884879652803   1.0000000
N2   N   0.611308894075265   0.388886522774000   0.120519145669430   1.0000000
N2   N   0.777933482487514   0.888982366598449   0.124900820545343   1.0000000
N2   N   0.944579127550925   0.388959758367349   0.125111088070243   1.0000000
N2   N   0.111250229394801   0.555631233335494   0.624873252216914   1.0000000
N2   N   0.277926824879906   0.055624181671694   0.625115120347169   1.0000000
N2   N   0.777893565349126   0.555613449341221   0.626508235134717   1.0000000
N2   N   0.611276133109510   0.055626608174974   0.625002538993246   1.0000000
N2   N   0.944584897353569   0.055623887864676   0.624922868521220   1.0000000
N2   N   0.057740229475800   0.112290383145741   0.375000000000000   1.0000000
N2   N   0.554886756163032   0.618492983622417   0.375000000000000   1.0000000
N2   N   0.387310341435480   0.103049303088225   0.375000000000000   1.0000000
N2   N   0.888908297818909   0.611120815576141   0.375000000000000   1.0000000
N2   N   0.724012134067412   0.111289275868817   0.375000000000000   1.0000000
N2   N   0.055543735877088   0.777772062522316   0.875000000000000   1.0000000
N2   N   0.388865387852561   0.777773411258957   0.875000000000000   1.0000000
N2   N   0.222201855492661   0.277767594412986   0.875000000000000   1.0000000
N2   N   0.722206819549194   0.777772400725984   0.875000000000000   1.0000000
N2   N   0.555527861376545   0.277749492661257   0.875000000000000   1.0000000
N2   N   0.888874304012211   0.277771401031765   0.875000000000000   1.0000000
N2   N   0.220740271297650   0.777036802315529   0.375000000000000   1.0000000
N2   N   0.057740229475800   0.278783179663395   0.375000000000000   1.0000000
N2   N   0.386373206086747   0.262836513230180   0.375000000000000   1.0000000
N2   N   0.556008238052649   0.781528822558260   0.375000000000000   1.0000000
N2   N   0.889632779091046   0.778636648222232   0.375000000000000   1.0000000
N2   N   0.723718188290608   0.276825506348281   0.375000000000000   1.0000000
N2   N   0.055535757927157   0.944432614453612   0.875000000000000   1.0000000
N2   N   0.388865387852561   0.944425309926952   0.875000000000000   1.0000000
N2   N   0.222195433342982   0.444440482808207   0.875000000000000   1.0000000
N2   N   0.555542348196427   0.444437840764878   0.875000000000000   1.0000000
N2   N   0.722201900177237   0.944435478120155   0.875000000000000   1.0000000
N2   N   0.888882737735088   0.444441085209678   0.875000000000000   1.0000000
N2   N   0.055618749498088   0.444911625658120   0.375000000000000   1.0000000
N2   N   0.220721358262195   0.941915277118468   0.375000000000000   1.0000000
N2   N   0.556218745915698   0.944776039624479   0.375000000000000   1.0000000
N2   N   0.386373206086742   0.456870026189921   0.375000000000000   1.0000000
N2   N   0.890634007174598   0.945925396114238   0.375000000000000   1.0000000
N2   N   0.724563841680026   0.444958295809631   0.375000000000000   1.0000000
N2   N   0.222196506837556   0.611105327786532   0.875000000000000   1.0000000
N2   N   0.055536132771964   0.111099558097725   0.875000000000000   1.0000000
N2   N   0.555527861376545   0.611111702048658   0.875000000000000   1.0000000
N2   N   0.388859506735234   0.111078719906198   0.875000000000000   1.0000000
N2   N   0.888894468897172   0.611113901115277   0.875000000000000   1.0000000
N2   N   0.054612117409933   0.610914560445480   0.375000000000000   1.0000000
N2   N   0.722201900177237   0.111099755390435   0.875000000000000   1.0000000
N2   N   0.221707935145559   0.108561252019808   0.375000000000000   1.0000000
N2   N   0.387310341435480   0.617594371680583   0.375000000000000   1.0000000
N2   N   0.724563841680026   0.612938879203750   0.375000000000000   1.0000000
N2   N   0.556008238052649   0.107812748827747   0.375000000000000   1.0000000
N2   N   0.388859506735234   0.611114120162409   0.875000000000000   1.0000000
N2   N   0.891116444387646   0.112224888860503   0.375000000000000   1.0000000
N2   N   0.222202337988185   0.777767835660734   0.875000000000000   1.0000000
N2   N   0.055536132771964   0.277769908007591   0.875000000000000   1.0000000
N2   N   0.388863644791834   0.277745446189923   0.875000000000000   1.0000000
N2   N   0.555530910936379   0.777774346078414   0.875000000000000   1.0000000
N2   N   0.888882737735088   0.777774985858732   0.875000000000000   1.0000000
N2   N   0.722206819549194   0.277767752156540   0.875000000000000   1.0000000
N2   N   0.054612117409933   0.777030890297746   0.375000000000000   1.0000000
N2   N   0.387963793812278   0.779505984774098   0.375000000000000   1.0000000
N2   N   0.225662009400552   0.279497671366965   0.375000000000000   1.0000000
N2   N   0.723718188290608   0.780226015275649   0.375000000000000   1.0000000
N2   N   0.554886756163032   0.269727105873909   0.375000000000000   1.0000000
N2   N   0.890634007174598   0.278041944393707   0.375000000000000   1.0000000
N2   N   0.055535757927157   0.444436476806863   0.875000000000000   1.0000000
N2   N   0.222196506837556   0.944424512384387   0.875000000000000   1.0000000
N2   N   0.555532131292126   0.944432732312710   0.875000000000000   1.0000000
N2   N   0.388863644791834   0.444451531935264   0.875000000000000   1.0000000
N2   N   0.888874304012211   0.944436236313816   0.875000000000000   1.0000000
N2   N   0.055618749498088   0.944040457173319   0.375000000000000   1.0000000
N2   N   0.722226062635314   0.444447256377639   0.875000000000000   1.0000000
N2   N   0.387963793812278   0.941791142371524   0.375000000000000   1.0000000
N2   N   0.221707935145559   0.446480016459080   0.375000000000000   1.0000000
N2   N   0.220721358262195   0.612139414477055   0.375000000000000   1.0000000
N2   N   0.724012134067412   0.946056191531903   0.375000000000000   1.0000000
N2   N   0.889632779091046   0.444329464202130   0.375000000000000   1.0000000
N2   N   0.055543735877088   0.611105006688079   0.875000000000000   1.0000000
N2   N   0.222195433342982   0.111088283868108   0.875000000000000   1.0000000
N2   N   0.722226062635314   0.611112139590998   0.875000000000000   1.0000000
N2   N   0.555530910936379   0.111089898191309   0.875000000000000   1.0000000
N2   N   0.888872370020762   0.111102851677059   0.875000000000000   1.0000000
B2   B   0.111550885503824   0.054998147306067   0.375000000000000   1.0000000
B2   B   0.617609930947714   0.571975188699261   0.375000000000000   1.0000000
B2   B   0.444553592220883   0.051143329157370   0.375000000000000   1.0000000
B2   B   0.944208746777714   0.555406569689946   0.375000000000000   1.0000000
B2   B   0.780156446126987   0.056744889730145   0.375000000000000   1.0000000
B2   B   0.111096452505352   0.722214892919353   0.875000000000000   1.0000000
B2   B   0.444415160920038   0.722204868781556   0.875000000000000   1.0000000
B2   B   0.277771489757737   0.222218448413173   0.875000000000000   1.0000000
B2   B   0.777755448315809   0.722201601267826   0.875000000000000   1.0000000
B2   B   0.611075141312489   0.222214151988866   0.875000000000000   1.0000000
B2   B   0.944439747399315   0.222218844292724   0.875000000000000   1.0000000
B2   B   0.276804296480488   0.722761474915600   0.375000000000000   1.0000000
B2   B   0.114357476891979   0.223845405112651   0.375000000000000   1.0000000
B2   B   0.442761811314212   0.211573228252658   0.375000000000000   1.0000000
B2   B   0.612586347057452   0.728270275186591   0.375000000000000   1.0000000
B2   B   0.944208746777714   0.722135510421057   0.375000000000000   1.0000000
B2   B   0.779830566539759   0.222060520192918   0.375000000000000   1.0000000
B2   B   0.111097674468006   0.888886510811720   0.875000000000000   1.0000000
B2   B   0.444417173568647   0.888875253451008   0.875000000000000   1.0000000
B2   B   0.277771489757737   0.388886374677887   0.875000000000000   1.0000000
B2   B   0.611067979669416   0.388888867410791   0.875000000000000   1.0000000
B2   B   0.777758641884474   0.888875616088566   0.875000000000000   1.0000000
B2   B   0.944433832183391   0.388882288504932   0.875000000000000   1.0000000
B2   B   0.111550885503824   0.389886071531081   0.375000000000000   1.0000000
B2   B   0.276804296480488   0.887376154898214   0.375000000000000   1.0000000
B2   B   0.612848679336777   0.891392655963121   0.375000000000000   1.0000000
B2   B   0.945267069697931   0.889730450885572   0.375000000000000   1.0000000
B2   B   0.779654776003161   0.388039008881711   0.375000000000000   1.0000000
B2   B   0.277757035337702   0.555541277682894   0.875000000000000   1.0000000
B2   B   0.111104896353254   0.055556426883596   0.875000000000000   1.0000000
B2   B   0.611067979669416   0.555512445591971   0.875000000000000   1.0000000
B2   B   0.444415160920038   0.055543625471825   0.875000000000000   1.0000000
B2   B   0.944434720981159   0.555551606659578   0.875000000000000   1.0000000
B2   B   0.110225359612938   0.555810232757051   0.375000000000000   1.0000000
B2   B   0.777762566942117   0.055547950137711   0.875000000000000   1.0000000
B2   B   0.276586703029914   0.052200983450540   0.375000000000000   1.0000000
B2   B   0.442761811314212   0.564521916394921   0.375000000000000   1.0000000
B2   B   0.778697046051614   0.556015189692487   0.375000000000000   1.0000000
B2   B   0.612848679336777   0.054789356706937   0.375000000000000   1.0000000
B2   B   0.444415251077652   0.555536491462309   0.875000000000000   1.0000000
B2   B   0.946871124125191   0.057096759140544   0.375000000000000   1.0000000
B2   B   0.277755992641306   0.722208155530028   0.875000000000000   1.0000000
B2   B   0.111110901590527   0.222222117461923   0.875000000000000   1.0000000
B2   B   0.444415251077652   0.222212092948662   0.875000000000000   1.0000000
B2   B   0.611075141312489   0.722194322656971   0.875000000000000   1.0000000
B2   B   0.944434720981159   0.722216447654860   0.875000000000000   1.0000000
B2   B   0.777758641884474   0.222216359129243   0.875000000000000   1.0000000
B2   B   0.110019565753493   0.721676449543415   0.375000000000000   1.0000000
B2   B   0.444553592220883   0.726743596396791   0.375000000000000   1.0000000
B2   B   0.278475246276292   0.220011761716017   0.375000000000000   1.0000000
B2   B   0.779654776003161   0.724949100454783   0.375000000000000   1.0000000
B2   B   0.612586347057452   0.217649405204208   0.375000000000000   1.0000000
B2   B   0.946871124125191   0.223107698317971   0.375000000000000   1.0000000
B2   B   0.111104896353254   0.388881802803008   0.875000000000000   1.0000000
B2   B   0.277755992641306   0.888881170444579   0.875000000000000   1.0000000
B2   B   0.611085092664756   0.888873402851167   0.875000000000000   1.0000000
B2   B   0.444442312479165   0.388887822906251   0.875000000000000   1.0000000
B2   B   0.944433832183391   0.888884877011833   0.875000000000000   1.0000000
B2   B   0.110225359612938   0.887748460189274   0.375000000000000   1.0000000
B2   B   0.777755448315809   0.388887180381321   0.875000000000000   1.0000000
B2   B   0.444794013450663   0.889063673391977   0.375000000000000   1.0000000
B2   B   0.278475246276292   0.391796817893620   0.375000000000000   1.0000000
B2   B   0.276586703029914   0.557719052912715   0.375000000000000   1.0000000
B2   B   0.617609930947714   0.378968075581775   0.375000000000000   1.0000000
B2   B   0.779830566539759   0.891103379680177   0.375000000000000   1.0000000
B2   B   0.945267069697931   0.388869952145704   0.375000000000000   1.0000000
B2   B   0.111097674468006   0.555544496989630   0.875000000000000   1.0000000
B2   B   0.277757035337702   0.055549090988136   0.875000000000000   1.0000000
B2   B   0.777757820154413   0.555545576743858   0.875000000000000   1.0000000
B2   B   0.611085092664756   0.055545023146977   0.875000000000000   1.0000000
B2   B   0.944439747399315   0.055554236439910   0.875000000000000   1.0000000
B2   B   0.055717585157322   0.111197430785613   0.125066794749071   1.0000000
B2   B   0.555702438583407   0.611157323760123   0.122451101261607   1.0000000
B2   B   0.389039750717818   0.111219654318747   0.124497188758185   1.0000000
B2   B   0.888972305071802   0.611152819202558   0.124472530024581   1.0000000
B2   B   0.722381715870678   0.111174759473790   0.124943368438354   1.0000000
B2   B   0.055705199963138   0.777862311040179   0.624956272087433   1.0000000
B2   B   0.389050121319226   0.777852592560505   0.624974182268411   1.0000000
B2   B   0.222342067027726   0.277837700180533   0.625768295597491   1.0000000
B2   B   0.722346445943325   0.777873660237956   0.625722931315803   1.0000000
B2   B   0.555702438583407   0.277878448156673   0.627548898738397   1.0000000
B2   B   0.889047684355156   0.277837952451170   0.624997148284067   1.0000000
B2   B   0.222385125968389   0.777859229650844   0.125066277516688   1.0000000
B2   B   0.055717585157322   0.277853487705046   0.125066794749071   1.0000000
B2   B   0.388916056881110   0.277798107129209   0.122176090462577   1.0000000
B2   B   0.555699949596694   0.777862683643678   0.124653242218978   1.0000000
B2   B   0.889022129327892   0.777861961118891   0.124730876322367   1.0000000
B2   B   0.722346445943325   0.277806119038684   0.124277068684181   1.0000000
B2   B   0.055716843889970   0.944539843081564   0.624869982443481   1.0000000
B2   B   0.389050121319226   0.944530862092054   0.624974182268411   1.0000000
B2   B   0.222367233861052   0.444503331338410   0.625253561909146   1.0000000
B2   B   0.555646330582778   0.444489831958053   0.628229850697191   1.0000000
B2   B   0.722381715870678   0.944540289730233   0.625056631561634   1.0000000
B2   B   0.889022129327892   0.444493501542387   0.625269123677634   1.0000000
B2   B   0.055716843889970   0.444510334141776   0.125130017556487   1.0000000
B2   B   0.222390377308359   0.944549622878025   0.125065535739751   1.0000000
B2   B   0.555712202690856   0.944522768012077   0.125024716270283   1.0000000
B2   B   0.388916056881110   0.444451283085284   0.122176090462577   1.0000000
B2   B   0.889047684355156   0.944543065237355   0.125002851715936   1.0000000
B2   B   0.722249351630614   0.444441576648290   0.122556117000294   1.0000000
B2   B   0.222390377308359   0.611174087763689   0.624934464260273   1.0000000
B2   B   0.055717585157322   0.111197430785613   0.624933205250928   1.0000000
B2   B   0.555702438583407   0.611157323760123   0.627548898738397   1.0000000
B2   B   0.389039750717818   0.111219654318747   0.625502811241781   1.0000000
B2   B   0.888972305071802   0.611152819202558   0.625527469975438   1.0000000
B2   B   0.055705199963138   0.611176222256174   0.125043727912585   1.0000000
B2   B   0.722381715870678   0.111174759473790   0.625056631561634   1.0000000
B2   B   0.222367233861052   0.111197235855981   0.124746438090879   1.0000000
B2   B   0.389039750717818   0.611153429732377   0.124497188758185   1.0000000
B2   B   0.722249351630614   0.611141108315717   0.122556117000294   1.0000000
B2   B   0.555699949596694   0.111170599286340   0.124653242218978   1.0000000
B2   B   0.389039750717818   0.611153429732377   0.625502811241781   1.0000000
B2   B   0.889058241243626   0.111195787288481   0.125030397050777   1.0000000
B2   B   0.222385125968389   0.777859229650844   0.624933722483322   1.0000000
B2   B   0.055717585157322   0.277853487705046   0.624933205250928   1.0000000
B2   B   0.388916056881110   0.277798107129209   0.627823909537433   1.0000000
B2   B   0.555699949596694   0.777862683643678   0.625346757781033   1.0000000
B2   B   0.889022129327892   0.777861961118891   0.625269123677634   1.0000000
B2   B   0.722346445943325   0.277806119038684   0.625722931315803   1.0000000
B2   B   0.055705199963138   0.777862311040179   0.125043727912585   1.0000000
B2   B   0.389050121319226   0.777852592560505   0.125025817731568   1.0000000
B2   B   0.222342067027726   0.277837700180533   0.124231704402491   1.0000000
B2   B   0.722346445943325   0.777873660237956   0.124277068684181   1.0000000
B2   B   0.555702438583407   0.277878448156673   0.122451101261607   1.0000000
B2   B   0.889047684355156   0.277837952451170   0.125002851715936   1.0000000
B2   B   0.055716843889970   0.444510334141776   0.624869982443481   1.0000000
B2   B   0.222390377308359   0.944549622878025   0.624934464260273   1.0000000
B2   B   0.555712202690856   0.944522768012077   0.624975283729699   1.0000000
B2   B   0.388916056881110   0.444451283085284   0.627823909537433   1.0000000
B2   B   0.889047684355156   0.944543065237355   0.624997148284067   1.0000000
B2   B   0.055716843889970   0.944539843081564   0.125130017556487   1.0000000
B2   B   0.722249351630614   0.444441576648290   0.627443882999706   1.0000000
B2   B   0.389050121319226   0.944530862092054   0.125025817731568   1.0000000
B2   B   0.222367233861052   0.444503331338410   0.124746438090879   1.0000000
B2   B   0.222390377308359   0.611174087763689   0.125065535739751   1.0000000
B2   B   0.555646330582778   0.444489831958053   0.121770149302809   1.0000000
B2   B   0.722381715870678   0.944540289730233   0.124943368438354   1.0000000
B2   B   0.889022129327892   0.444493501542387   0.124730876322367   1.0000000
B2   B   0.055705199963138   0.611176222256174   0.624956272087433   1.0000000
B2   B   0.222367233861052   0.111197235855981   0.625253561909146   1.0000000
B2   B   0.722249351630614   0.611141108315717   0.627443882999706   1.0000000
B2   B   0.555699949596694   0.111170599286340   0.625346757781033   1.0000000
B2   B   0.889058241243626   0.111195787288481   0.624969602949232   1.0000000


