data_1
_audit_creation_method   'vasp2cif'
_cell_length_a    17.52789999999977
_cell_length_b    17.52789999999977
_cell_length_c    15.0
_cell_angle_alpha    90.0
_cell_angle_beta    90.0
_cell_angle_gamma    119.99999999999916

_symmetry_space_group_name_H-M    'P 1'
loop_
_atom_site_label
_atom_site_type_symbol
_atom_site_fract_x
_atom_site_fract_y
_atom_site_fract_z
_atom_site_occupancy
B2   B   0.905176770525263   0.951866549229391   0.119147984174687   1.0000000
B2   B   0.904154241176591   0.094047380593125   0.119075562069436   1.0000000
B2   B   0.903898339646969   0.236733263572595   0.118601822960492   1.0000000
B2   B   0.903751107332841   0.379491435681088   0.118120288980963   1.0000000
B2   B   0.904336079195130   0.522392766378777   0.118330170432824   1.0000000
B2   B   0.905924871130748   0.665772854052137   0.119375673506304   1.0000000
B2   B   0.906464803693570   0.809664188922566   0.118187305358504   1.0000000
B2   B   0.047933303157333   0.951332436623209   0.121625652901391   1.0000000
B2   B   0.047053539240998   0.093829095875630   0.122905790533445   1.0000000
B2   B   0.046760314481081   0.236691232581211   0.122183584755563   1.0000000
B2   B   0.046733559860011   0.379348759349323   0.119669688363251   1.0000000
B2   B   0.047188664682983   0.522091322819326   0.118832410299203   1.0000000
B2   B   0.047911569225742   0.665077072555372   0.119811568218044   1.0000000
B2   B   0.048163257287537   0.808265258422433   0.120617393343179   1.0000000
B2   B   0.190433680987786   0.950670328510953   0.121450222610741   1.0000000
B2   B   0.189740805736932   0.093216008571857   0.124761186513089   1.0000000
B2   B   0.188968193266234   0.235937547165348   0.125282237209016   1.0000000
B2   B   0.189695860222025   0.379453203859977   0.118698021500985   1.0000000
B2   B   0.190134374944539   0.521824286546934   0.114062855491995   1.0000000
B2   B   0.190490787973836   0.664742990291128   0.116304075240887   1.0000000
B2   B   0.190615910430328   0.807738089897421   0.118989960392716   1.0000000
B2   B   0.333185811853968   0.950413872841117   0.119094590218388   1.0000000
B2   B   0.332805390067601   0.093059622144707   0.120628351425350   1.0000000
B2   B   0.331163834219101   0.234657335332586   0.120307202440809   1.0000000
B2   B   0.329937627355916   0.378115046508470   0.107261936225212   1.0000000
B2   B   0.332952977504697   0.520478691287966   0.094016679685654   1.0000000
B2   B   0.332837423428757   0.664227351743387   0.102579745451700   1.0000000
B2   B   0.333306000795351   0.807449098183201   0.113882393053990   1.0000000
B2   B   0.475941533074390   0.950697299832308   0.116611656065283   1.0000000
B2   B   0.475742684067991   0.093441345797142   0.118611982854632   1.0000000
B2   B   0.475131011271854   0.235478101153322   0.110740946337866   1.0000000
B2   B   0.463519610464470   0.362871922344102   0.069596059281016   1.0000000
B2   B   0.537754561789992   0.639805827813281   0.015650915195030   1.0000000
B2   B   0.472330341155767   0.668497093402540   0.063922536363784   1.0000000
B2   B   0.476087753052881   0.808140128763057   0.105619952348681   1.0000000
B2   B   0.618619890752218   0.950920861906613   0.113420716189180   1.0000000
B2   B   0.618546004933712   0.093986634511724   0.116970552855484   1.0000000
B2   B   0.618278074513836   0.237165386971568   0.114347155875778   1.0000000
B2   B   0.616753325193981   0.380177370949261   0.102661075288249   1.0000000
B2   B   0.625048604165989   0.529923991653693   0.093012197460567   1.0000000
B2   B   0.631756620596303   0.673529739604178   0.066057210207659   1.0000000
B2   B   0.618916381778648   0.808311633172593   0.099076025438001   1.0000000
B2   B   0.761534795055893   0.951303741963671   0.114527121515012   1.0000000
B2   B   0.761259690180165   0.094014054861665   0.116533761593681   1.0000000
B2   B   0.761079674154244   0.236909153079791   0.116528575919227   1.0000000
B2   B   0.760557091596336   0.379818073543605   0.114846777014642   1.0000000
B2   B   0.761752215931037   0.523133281904792   0.113214536681014   1.0000000
B2   B   0.766945545744391   0.668741444846327   0.107488628019120   1.0000000
B2   B   0.763708361824794   0.810343630089636   0.110217012581786   1.0000000
In2   In   0.492811284203353   0.493521743792299   0.018968278080365   1.0000000
N2   N   0.953315056882054   0.904543329016511   0.120034684915932   1.0000000
N2   N   0.952124920159935   0.046749188659752   0.120404457172810   1.0000000
N2   N   0.951428463680545   0.189129035418123   0.119992042193760   1.0000000
N2   N   0.951239450095272   0.331830347484031   0.118999721522364   1.0000000
N2   N   0.951704684405615   0.474637681371404   0.118746037594273   1.0000000
N2   N   0.952804349230776   0.617635312815477   0.119915713673808   1.0000000
N2   N   0.953372691885985   0.761084884654943   0.119997718414555   1.0000000
N2   N   0.095407646015382   0.903393763840019   0.121345631508127   1.0000000
N2   N   0.094756879299463   0.046089193365190   0.123408718313737   1.0000000
N2   N   0.093778769117018   0.188487581458102   0.124408541909237   1.0000000
N2   N   0.093908733339440   0.331634080257891   0.121566055985494   1.0000000
N2   N   0.094393405808163   0.474431432778493   0.118519725772428   1.0000000
N2   N   0.095060513224739   0.617330468011994   0.118929511931857   1.0000000
N2   N   0.095448124440340   0.760350452103161   0.120174031813149   1.0000000
N2   N   0.237962683972590   0.902969432259175   0.119833094864957   1.0000000
N2   N   0.237577839025474   0.045577615282996   0.122904447794662   1.0000000
N2   N   0.236297947641377   0.187605625685714   0.126818739772167   1.0000000
N2   N   0.235280600241728   0.330048672135938   0.122097959453148   1.0000000
N2   N   0.237060349775482   0.474311693263461   0.111107902259633   1.0000000
N2   N   0.237471524774470   0.617183481434329   0.112362173951748   1.0000000
N2   N   0.237915321740512   0.760128465621279   0.116561586208032   1.0000000
N2   N   0.380698123869708   0.902958909251103   0.117011350297260   1.0000000
N2   N   0.380563187190703   0.045559221581042   0.119765492848112   1.0000000
N2   N   0.379887669564967   0.187616464377554   0.117754215310463   1.0000000
N2   N   0.376867580559136   0.327670591151917   0.107987065844624   1.0000000
N2   N   0.374402081350242   0.468964109452873   0.089621803701827   1.0000000
N2   N   0.378689653111080   0.617220045219345   0.085878354617107   1.0000000
N2   N   0.380457869707239   0.760219588820629   0.107036503827485   1.0000000
N2   N   0.523551355700442   0.903605522315238   0.113616934123101   1.0000000
N2   N   0.523438614716770   0.046109558066496   0.118175844688379   1.0000000
N2   N   0.523215691440177   0.188578381444217   0.116424514481420   1.0000000
N2   N   0.521461001897809   0.329223014244842   0.093784395523406   1.0000000
N2   N   0.523367371810527   0.761986231934798   0.092941575844800   1.0000000
N2   N   0.666470104451550   0.903737054242207   0.110454118071623   1.0000000
N2   N   0.666195305502675   0.046485693441853   0.116134478595649   1.0000000
N2   N   0.665966157635397   0.189436500729227   0.116219459245100   1.0000000
N2   N   0.665138037159403   0.332641225213675   0.111427669002947   1.0000000
N2   N   0.666247500543563   0.476547709626054   0.105718582647003   1.0000000
N2   N   0.675424463516635   0.623530791359593   0.088839154924115   1.0000000
N2   N   0.670499871579202   0.764325856310269   0.097248781529237   1.0000000
N2   N   0.810585101738003   0.905154471720092   0.116388912831808   1.0000000
N2   N   0.809038543006000   0.046656687236180   0.116820826989429   1.0000000
N2   N   0.808694395940183   0.189289969497346   0.117138111145497   1.0000000
N2   N   0.808356411879860   0.332118642566871   0.116746549179246   1.0000000
N2   N   0.809007634386438   0.475038898250070   0.115936469466281   1.0000000
N2   N   0.811340225685612   0.618517597821765   0.116382504948613   1.0000000
N2   N   0.812605303491402   0.763371551895180   0.112933960440646   1.0000000


