data_1
_audit_creation_method   'vasp2cif'
_cell_length_a    14.93631414619966
_cell_length_b    14.936314146199727
_cell_length_c    13.341276283792837
_cell_angle_alpha    90.0
_cell_angle_beta    90.0
_cell_angle_gamma    119.99999999999984

_symmetry_space_group_name_H-M    'P 1'
loop_
_atom_site_label
_atom_site_type_symbol
_atom_site_fract_x
_atom_site_fract_y
_atom_site_fract_z
_atom_site_occupancy
Sb2   Sb   0.444444444444443   0.388888888888886   0.375000000000000   1.0000000
N2   N   0.111147668710639   0.055595393414500   0.125105106063806   1.0000000
N2   N   0.611055258991033   0.555489459511149   0.121100950235443   1.0000000
N2   N   0.444447724703883   0.055595393414500   0.125105106063806   1.0000000
N2   N   0.944429129367051   0.555545817855603   0.125948852184565   1.0000000
N2   N   0.777777777777779   0.055555555555557   0.124818252657838   1.0000000
N2   N   0.111111111111114   0.722222222222221   0.623885401628853   1.0000000
N2   N   0.444447724703883   0.722185664622711   0.624894893936230   1.0000000
N2   N   0.277843873822159   0.222278074342345   0.628899049764494   1.0000000
N2   N   0.777737939918793   0.722185664622711   0.624894893936230   1.0000000
N2   N   0.611089157448772   0.222244175884628   0.625790665257156   1.0000000
N2   N   0.944453983488274   0.222225787795670   0.624945082898528   1.0000000
N2   N   0.277787515477634   0.722216644844670   0.125948852184565   1.0000000
N2   N   0.111155018435928   0.222244175884628   0.124209334742879   1.0000000
N2   N   0.444434200520158   0.222278074342345   0.121100950235436   1.0000000
N2   N   0.611089157448772   0.722178314897379   0.124209334742879   1.0000000
N2   N   0.944429129367051   0.722216644844670   0.125948852184565   1.0000000
N2   N   0.777771804307382   0.222225787795670   0.125054917101521   1.0000000
N2   N   0.111116688488623   0.888904203966278   0.624051147815435   1.0000000
N2   N   0.444450051060828   0.888891692197053   0.624314076458048   1.0000000
N2   N   0.277843873822159   0.388899132813170   0.628899049764494   1.0000000
N2   N   0.611055258991033   0.388899132813170   0.628899049764494   1.0000000
N2   N   0.777771804307382   0.888879349845055   0.624945082898528   1.0000000
N2   N   0.944441641136275   0.388883282272501   0.624314076458048   1.0000000
N2   N   0.111147668710639   0.388885608629446   0.125105106063806   1.0000000
N2   N   0.277787515477634   0.888904203966278   0.125948852184565   1.0000000
N2   N   0.611107545537722   0.888879349845055   0.125054917101521   1.0000000
N2   N   0.444444444444443   0.388888888888886   0.110643358924394   1.0000000
N2   N   0.944441641136275   0.888891692197053   0.125685923541960   1.0000000
N2   N   0.777737939918793   0.388885608629446   0.125105106063806   1.0000000
N2   N   0.277795561976261   0.555537771357238   0.625323010478752   1.0000000
N2   N   0.111147668710639   0.055595393414500   0.624894893936230   1.0000000
N2   N   0.611055258991033   0.555489459511149   0.628899049764494   1.0000000
N2   N   0.444447724703883   0.055595393414500   0.624894893936230   1.0000000
N2   N   0.944429129367051   0.555545817855603   0.624051147815435   1.0000000
N2   N   0.111116688488623   0.555545817855603   0.125948852184565   1.0000000
N2   N   0.777777777777779   0.055555555555557   0.625181747342112   1.0000000
N2   N   0.277795561976261   0.055591123952451   0.124676989521298   1.0000000
N2   N   0.444434200520158   0.555489459511149   0.121100950235436   1.0000000
N2   N   0.777742209380820   0.555537771357238   0.124676989521298   1.0000000
N2   N   0.611107545537722   0.055561529025918   0.125054917101521   1.0000000
N2   N   0.444434200520158   0.555489459511149   0.628899049764494   1.0000000
N2   N   0.944453983488274   0.055561529025918   0.125054917101521   1.0000000
N2   N   0.277787515477634   0.722216644844670   0.624051147815435   1.0000000
N2   N   0.111155018435928   0.222244175884628   0.625790665257156   1.0000000
N2   N   0.444434200520158   0.222278074342345   0.628899049764494   1.0000000
N2   N   0.611089157448772   0.722178314897379   0.625790665257156   1.0000000
N2   N   0.944429129367051   0.722216644844670   0.624051147815435   1.0000000
N2   N   0.777771804307382   0.222225787795670   0.624945082898528   1.0000000
N2   N   0.111111111111114   0.722222222222221   0.126114598371126   1.0000000
N2   N   0.444447724703883   0.722185664622711   0.125105106063806   1.0000000
N2   N   0.277843873822159   0.222278074342345   0.121100950235436   1.0000000
N2   N   0.777737939918793   0.722185664622711   0.125105106063806   1.0000000
N2   N   0.611089157448772   0.222244175884628   0.124209334742879   1.0000000
N2   N   0.944453983488274   0.222225787795670   0.125054917101521   1.0000000
N2   N   0.111147668710639   0.388885608629446   0.624894893936230   1.0000000
N2   N   0.277787515477634   0.888904203966278   0.624051147815435   1.0000000
N2   N   0.611107545537722   0.888879349845055   0.624945082898528   1.0000000
N2   N   0.444444444444443   0.388888888888886   0.639356641075592   1.0000000
N2   N   0.944441641136275   0.888891692197053   0.624314076458048   1.0000000
N2   N   0.111116688488623   0.888904203966278   0.125948852184565   1.0000000
N2   N   0.777737939918793   0.388885608629446   0.624894893936230   1.0000000
N2   N   0.444450051060828   0.888891692197053   0.125685923541952   1.0000000
N2   N   0.277843873822159   0.388899132813170   0.121100950235450   1.0000000
N2   N   0.277795561976261   0.555537771357238   0.124676989521298   1.0000000
N2   N   0.611055258991033   0.388899132813170   0.121100950235436   1.0000000
N2   N   0.777771804307382   0.888879349845055   0.125054917101521   1.0000000
N2   N   0.944441641136275   0.388883282272501   0.125685923541960   1.0000000
N2   N   0.111116688488623   0.555545817855603   0.624051147815435   1.0000000
N2   N   0.277795561976261   0.055591123952451   0.625323010478752   1.0000000
N2   N   0.777742209380820   0.555537771357238   0.625323010478752   1.0000000
N2   N   0.611107545537722   0.055561529025918   0.624945082898528   1.0000000
N2   N   0.944453983488274   0.055561529025918   0.624945082898528   1.0000000
N2   N   0.054134710930624   0.110212760496800   0.375000000000000   1.0000000
N2   N   0.556044347317052   0.612088694634103   0.375000000000000   1.0000000
N2   N   0.387097155173444   0.101762149073371   0.375000000000000   1.0000000
N2   N   0.892203440006748   0.612768386670067   0.375000000000000   1.0000000
N2   N   0.722489558327893   0.110843775005393   0.375000000000000   1.0000000
N2   N   0.055557606333252   0.777775727000161   0.875000000000000   1.0000000
N2   N   0.388882023521692   0.777781267840741   0.875000000000000   1.0000000
N2   N   0.222212485626244   0.277772909479779   0.875000000000000   1.0000000
N2   N   0.722229144522871   0.777778889552294   0.875000000000000   1.0000000
N2   N   0.555560423853571   0.277772909479779   0.875000000000000   1.0000000
N2   N   0.888892256507240   0.277784513014423   0.875000000000000   1.0000000
N2   N   0.221593801254405   0.777463567293899   0.375000000000000   1.0000000
N2   N   0.054134710930624   0.277255283767188   0.375000000000000   1.0000000
N2   N   0.372705141726453   0.245410283452927   0.375000000000000   1.0000000
N2   N   0.556078049566112   0.779198622402747   0.375000000000000   1.0000000
N2   N   0.891479838598959   0.779868511069105   0.375000000000000   1.0000000
N2   N   0.723120572836522   0.277255283767188   0.375000000000000   1.0000000
N2   N   0.055552065492609   0.944434089014330   0.875000000000000   1.0000000
N2   N   0.388882023521692   0.944434089014330   0.875000000000000   1.0000000
N2   N   0.222206269056456   0.444457370775590   0.875000000000000   1.0000000
N2   N   0.555615536967454   0.444474435150395   0.875000000000000   1.0000000
N2   N   0.722220952575814   0.944441905151671   0.875000000000000   1.0000000
N2   N   0.888899244318999   0.444451309811637   0.875000000000000   1.0000000
N2   N   0.053464822264217   0.444944660863134   0.375000000000000   1.0000000
N2   N   0.220564946663283   0.941129893326581   0.375000000000000   1.0000000
N2   N   0.556008992277837   0.944671162805601   0.375000000000000   1.0000000
N2   N   0.372705141726453   0.460628191606876   0.375000000000000   1.0000000
N2   N   0.888662170527728   0.944671162805601   0.375000000000000   1.0000000
N2   N   0.731571184259901   0.446236178159884   0.375000000000000   1.0000000
N2   N   0.222213043603227   0.611120289730081   0.875000000000000   1.0000000
N2   N   0.055554443781027   0.111104188810380   0.875000000000000   1.0000000
N2   N   0.555560423853571   0.611120847707113   0.875000000000000   1.0000000
N2   N   0.388875962557738   0.111082231614173   0.875000000000000   1.0000000
N2   N   0.888907246126804   0.611120289730081   0.875000000000000   1.0000000
N2   N   0.055869766039459   0.611739532078959   0.375000000000000   1.0000000
N2   N   0.722220952575814   0.111112380757507   0.875000000000000   1.0000000
N2   N   0.214664993899927   0.101762149073371   0.375000000000000   1.0000000
N2   N   0.387097155173444   0.618668339433401   0.375000000000000   1.0000000
N2   N   0.731571184259901   0.618668339433401   0.375000000000000   1.0000000
N2   N   0.556078049566112   0.110212760496800   0.375000000000000   1.0000000
N2   N   0.388875962557738   0.611127064276893   0.875000000000000   1.0000000
N2   N   0.888354216677408   0.110843775005393   0.375000000000000   1.0000000
N2   N   0.222218120666831   0.777775727000161   0.875000000000000   1.0000000
N2   N   0.055554443781027   0.277783588303976   0.875000000000000   1.0000000
N2   N   0.388858898182934   0.277717796365924   0.875000000000000   1.0000000
N2   N   0.555549745029381   0.777778889552294   0.875000000000000   1.0000000
N2   N   0.888899244318999   0.777781267840741   0.875000000000000   1.0000000
N2   N   0.722229144522871   0.277783588303976   0.875000000000000   1.0000000
N2   N   0.055869766039459   0.777463567293899   0.375000000000000   1.0000000
N2   N   0.388388672470195   0.779868511069105   0.375000000000000   1.0000000
N2   N   0.221244638699225   0.277288986016284   0.375000000000000   1.0000000
N2   N   0.723120572836522   0.779198622402747   0.375000000000000   1.0000000
N2   N   0.556044347317052   0.277288986016284   0.375000000000000   1.0000000
N2   N   0.888662170527728   0.277324341055485   0.375000000000000   1.0000000
N2   N   0.055552065492609   0.444451309811637   0.875000000000000   1.0000000
N2   N   0.222213043603227   0.944426087206525   0.875000000000000   1.0000000
N2   N   0.555548820318962   0.944441076826089   0.875000000000000   1.0000000
N2   N   0.388858898182934   0.444474435150395   0.875000000000000   1.0000000
N2   N   0.888892256507240   0.944441076826089   0.875000000000000   1.0000000
N2   N   0.053464822264217   0.941853494734370   0.375000000000000   1.0000000
N2   N   0.722251101719212   0.444457370775590   0.875000000000000   1.0000000
N2   N   0.388388672470195   0.941853494734370   0.375000000000000   1.0000000
N2   N   0.214664993899927   0.446236178159884   0.375000000000000   1.0000000
N2   N   0.220564946663283   0.612768386670067   0.375000000000000   1.0000000
N2   N   0.587923049880423   0.460628191606876   0.375000000000000   1.0000000
N2   N   0.722489558327893   0.944979116655921   0.375000000000000   1.0000000
N2   N   0.891479838598959   0.444944660863134   0.375000000000000   1.0000000
N2   N   0.055557606333252   0.611115212666519   0.875000000000000   1.0000000
N2   N   0.222206269056456   0.111082231614173   0.875000000000000   1.0000000
N2   N   0.722251101719212   0.611127064276893   0.875000000000000   1.0000000
N2   N   0.555549745029381   0.111104188810380   0.875000000000000   1.0000000
N2   N   0.888891428181657   0.111112380757507   0.875000000000000   1.0000000
B2   B   0.106062779640780   0.050936314042292   0.375000000000000   1.0000000
B2   B   0.623182093312723   0.566039888641678   0.375000000000000   1.0000000
B2   B   0.444873534401526   0.050936314042292   0.375000000000000   1.0000000
B2   B   0.945932871555654   0.555964665864495   0.375000000000000   1.0000000
B2   B   0.777777777777779   0.055555555555557   0.375000000000000   1.0000000
B2   B   0.111111111111114   0.722222222222221   0.875000000000000   1.0000000
B2   B   0.444435179707618   0.722215049654088   0.875000000000000   1.0000000
B2   B   0.277802248427288   0.222227837571765   0.875000000000000   1.0000000
B2   B   0.777779869946484   0.722215049654088   0.875000000000000   1.0000000
B2   B   0.611100996798744   0.222232336534620   0.875000000000000   1.0000000
B2   B   0.944452315577417   0.222229178191997   0.875000000000000   1.0000000
B2   B   0.277368667468934   0.723301539024630   0.375000000000000   1.0000000
B2   B   0.109518304000043   0.221425818666697   0.375000000000000   1.0000000
B2   B   0.442857795328962   0.210151240020612   0.375000000000000   1.0000000
B2   B   0.611907514666653   0.723815029333307   0.375000000000000   1.0000000
B2   B   0.945932871555647   0.723301539024630   0.375000000000000   1.0000000
B2   B   0.777950904374717   0.221500063136680   0.375000000000000   1.0000000
B2   B   0.111110484594913   0.888884898857657   0.875000000000000   1.0000000
B2   B   0.444438750144309   0.888886041738804   0.875000000000000   1.0000000
B2   B   0.277802248427288   0.388907744188894   0.875000000000000   1.0000000
B2   B   0.611105495761507   0.388907744188894   0.875000000000000   1.0000000
B2   B   0.777776862614594   0.888881017755912   0.875000000000000   1.0000000
B2   B   0.944447291594524   0.388894583189020   0.875000000000000   1.0000000
B2   B   0.106062779640780   0.388459798931802   0.375000000000000   1.0000000
B2   B   0.277368667468934   0.887400461777674   0.375000000000000   1.0000000
B2   B   0.611833270196598   0.889784174571394   0.375000000000000   1.0000000
B2   B   0.944166648427543   0.889166684905786   0.375000000000000   1.0000000
B2   B   0.782397019291072   0.388459798931802   0.375000000000000   1.0000000
B2   B   0.277774797941659   0.555558535391620   0.875000000000000   1.0000000
B2   B   0.111118283679226   0.055553463386859   0.875000000000000   1.0000000
B2   B   0.611105495761507   0.555531084906126   0.875000000000000   1.0000000
B2   B   0.444435179707618   0.055553463386859   0.875000000000000   1.0000000
B2   B   0.944448434475671   0.555558919070577   0.875000000000000   1.0000000
B2   B   0.110031794308734   0.555964665864495   0.375000000000000   1.0000000
B2   B   0.777777777777779   0.055555555555557   0.875000000000000   1.0000000
B2   B   0.275224969254038   0.050449938507983   0.375000000000000   1.0000000
B2   B   0.442857795328962   0.566039888641678   0.375000000000000   1.0000000
B2   B   0.782883394825267   0.558108364079362   0.375000000000000   1.0000000
B2   B   0.611833270196598   0.055382428958655   0.375000000000000   1.0000000
B2   B   0.444425589144435   0.555531084906126   0.875000000000000   1.0000000
B2   B   0.943549158761935   0.055382428958655   0.375000000000000   1.0000000
B2   B   0.277774414262794   0.722222848738430   0.875000000000000   1.0000000
B2   B   0.111131339735912   0.222232336534620   0.875000000000000   1.0000000
B2   B   0.444425589144435   0.222227837571765   0.875000000000000   1.0000000
B2   B   0.611100996798744   0.722201993597438   0.875000000000000   1.0000000
B2   B   0.944448434475671   0.722222848738430   0.875000000000000   1.0000000
B2   B   0.777776862614594   0.222229178192004   0.875000000000000   1.0000000
B2   B   0.111111111111114   0.722222222222221   0.375000000000000   1.0000000
B2   B   0.444873534401526   0.727270553692577   0.375000000000000   1.0000000
B2   B   0.267293444691665   0.210151240020612   0.375000000000000   1.0000000
B2   B   0.782397019291072   0.727270553692577   0.375000000000000   1.0000000
B2   B   0.611907514666653   0.221425818666697   0.375000000000000   1.0000000
B2   B   0.943549158761935   0.221500063136680   0.375000000000000   1.0000000
B2   B   0.111118283679226   0.388898153625710   0.875000000000000   1.0000000
B2   B   0.277774414262794   0.888884898857657   0.875000000000000   1.0000000
B2   B   0.611104155141374   0.888881017755912   0.875000000000000   1.0000000
B2   B   0.444444444444443   0.388888888888886   0.875000000000000   1.0000000
B2   B   0.944447291594524   0.888886041738804   0.875000000000000   1.0000000
B2   B   0.110031794308734   0.887400461777681   0.375000000000000   1.0000000
B2   B   0.777779869946484   0.388898153625710   0.875000000000000   1.0000000
B2   B   0.445000036478264   0.889166684905786   0.375000000000000   1.0000000
B2   B   0.267293444691665   0.390475538004367   0.375000000000000   1.0000000
B2   B   0.275224969254038   0.558108364079362   0.375000000000000   1.0000000
B2   B   0.623182093312723   0.390475538004367   0.375000000000000   1.0000000
B2   B   0.777950904374717   0.889784174571394   0.375000000000000   1.0000000
B2   B   0.944166648427543   0.388333296855064   0.375000000000000   1.0000000
B2   B   0.111110484594913   0.555558919070577   0.875000000000000   1.0000000
B2   B   0.277774797941659   0.055549595883317   0.875000000000000   1.0000000
B2   B   0.777783737450011   0.555558535391620   0.875000000000000   1.0000000
B2   B   0.611104155141374   0.055556470718762   0.875000000000000   1.0000000
B2   B   0.944452315577417   0.055556470718762   0.875000000000000   1.0000000
B2   B   0.055580608702190   0.111139320883842   0.124766768782391   1.0000000
B2   B   0.555512101545146   0.611024203090256   0.121900430854760   1.0000000
B2   B   0.388913801299397   0.111220067702277   0.123751124426451   1.0000000
B2   B   0.888845857634965   0.611089595484218   0.125607317716525   1.0000000
B2   B   0.722219129910861   0.111114203422432   0.124900565932157   1.0000000
B2   B   0.055547916530442   0.777785416802865   0.623969707590997   1.0000000
B2   B   0.388905117507714   0.777764572218957   0.624363965464237   1.0000000
B2   B   0.222309130243001   0.277821231788204   0.628099569145283   1.0000000
B2   B   0.722194012449444   0.777752724631139   0.625233231217566   1.0000000
B2   B   0.555512101545146   0.277821231788204   0.628099569145283   1.0000000
B2   B   0.888884897850146   0.277769795700200   0.624755834695442   1.0000000
B2   B   0.222237500272437   0.777785416802865   0.126030292409010   1.0000000
B2   B   0.055580608702190   0.277774621151655   0.124766768782391   1.0000000
B2   B   0.389006923845992   0.278013847692035   0.117531447879440   1.0000000
B2   B   0.555558712181659   0.777752724631139   0.124766768782391   1.0000000
B2   B   0.888859454711279   0.777764572218957   0.125636034535728   1.0000000
B2   B   0.722194012449444   0.277774621151655   0.124766768782391   1.0000000
B2   B   0.055568761114343   0.944473878622050   0.624363965464237   1.0000000
B2   B   0.388905117507714   0.944473878622050   0.624363965464237   1.0000000
B2   B   0.222306266402866   0.444419532033932   0.626248875573499   1.0000000
B2   B   0.555319485641337   0.444326409487336   0.632468552120539   1.0000000
B2   B   0.722219129910861   0.944438259821702   0.625099434067801   1.0000000
B2   B   0.888859454711279   0.444428215825615   0.624363965464237   1.0000000
B2   B   0.055568761114343   0.444428215825615   0.125636034535728   1.0000000
B2   B   0.222243737849175   0.944487475698364   0.125607317716525   1.0000000
B2   B   0.555563537633221   0.944448435483182   0.125244165304629   1.0000000
B2   B   0.389006923845992   0.444326409487336   0.117531447879440   1.0000000
B2   B   0.888884897850146   0.944448435483182   0.125244165304629   1.0000000
B2   B   0.722113265631009   0.444419532033932   0.123751124426451   1.0000000
B2   B   0.222243737849175   0.611089595484218   0.624392682283432   1.0000000
B2   B   0.055580608702190   0.111139320883842   0.625233231217566   1.0000000
B2   B   0.555512101545146   0.611024203090256   0.628099569145283   1.0000000
B2   B   0.388913801299397   0.111220067702277   0.626248875573499   1.0000000
B2   B   0.888845857634965   0.611089595484218   0.624392682283432   1.0000000
B2   B   0.055547916530442   0.611095833060813   0.126030292409010   1.0000000
B2   B   0.722219129910861   0.111114203422432   0.625099434067801   1.0000000
B2   B   0.222306266402866   0.111220067702277   0.123751124426451   1.0000000
B2   B   0.388913801299397   0.611027066930449   0.123751124426451   1.0000000
B2   B   0.722113265631009   0.611027066930449   0.123751124426451   1.0000000
B2   B   0.555558712181659   0.111139320883842   0.124766768782391   1.0000000
B2   B   0.388913801299397   0.611027066930449   0.626248875573499   1.0000000
B2   B   0.888895073511627   0.111114203422432   0.124900565932157   1.0000000
B2   B   0.222237500272444   0.777785416802865   0.623969707590997   1.0000000
B2   B   0.055580608702190   0.277774621151655   0.625233231217566   1.0000000
B2   B   0.389006923845992   0.278013847692035   0.632468552120539   1.0000000
B2   B   0.555558712181659   0.777752724631139   0.625233231217566   1.0000000
B2   B   0.888859454711279   0.777764572218957   0.624363965464237   1.0000000
B2   B   0.722194012449444   0.277774621151655   0.625233231217566   1.0000000
B2   B   0.055547916530442   0.777785416802865   0.126030292409010   1.0000000
B2   B   0.388905117507714   0.777764572218957   0.125636034535728   1.0000000
B2   B   0.222309130243001   0.277821231788204   0.121900430854760   1.0000000
B2   B   0.722194012449444   0.777752724631139   0.124766768782391   1.0000000
B2   B   0.555512101545146   0.277821231788204   0.121900430854760   1.0000000
B2   B   0.888884897850146   0.277769795700200   0.125244165304629   1.0000000
B2   B   0.055568761114343   0.444428215825615   0.624363965464237   1.0000000
B2   B   0.222243737849175   0.944487475698364   0.624392682283432   1.0000000
B2   B   0.555563537633221   0.944448435483182   0.624755834695442   1.0000000
B2   B   0.389006923845992   0.444326409487336   0.632468552120539   1.0000000
B2   B   0.888884897850146   0.944448435483182   0.624755834695442   1.0000000
B2   B   0.055568761114343   0.944473878622050   0.125636034535728   1.0000000
B2   B   0.722113265631009   0.444419532033932   0.626248875573499   1.0000000
B2   B   0.388905117507714   0.944473878622050   0.125636034535728   1.0000000
B2   B   0.222306266402866   0.444419532033932   0.123751124426451   1.0000000
B2   B   0.222243737849175   0.611089595484218   0.125607317716525   1.0000000
B2   B   0.555319485641337   0.444326409487336   0.117531447879440   1.0000000
B2   B   0.722219129910861   0.944438259821702   0.124900565932157   1.0000000
B2   B   0.888859454711279   0.444428215825615   0.125636034535728   1.0000000
B2   B   0.055547916530442   0.611095833060813   0.623969707590997   1.0000000
B2   B   0.222306266402866   0.111220067702277   0.626248875573499   1.0000000
B2   B   0.722113265631009   0.611027066930449   0.626248875573499   1.0000000
B2   B   0.555558712181659   0.111139320883842   0.625233231217566   1.0000000
B2   B   0.888895073511627   0.111114203422432   0.625099434067801   1.0000000


