data_1
_audit_creation_method   'vasp2cif'
_cell_length_a    17.52789999999977
_cell_length_b    17.52789999999977
_cell_length_c    15.0
_cell_angle_alpha    90.0
_cell_angle_beta    90.0
_cell_angle_gamma    119.99999999999916

_symmetry_space_group_name_H-M    'P 1'
loop_
_atom_site_label
_atom_site_type_symbol
_atom_site_fract_x
_atom_site_fract_y
_atom_site_fract_z
_atom_site_occupancy
B2   B   0.904655527935064   0.952304477190941   0.110996883821641   1.0000000
B2   B   0.904836039014835   0.095260708784311   0.111034381109156   1.0000000
B2   B   0.904820431664772   0.238118070522654   0.111041100156125   1.0000000
B2   B   0.904624218609870   0.380906643849672   0.110979922468475   1.0000000
B2   B   0.904895510882567   0.523753866152741   0.110974239440222   1.0000000
B2   B   0.905062751906922   0.666801091653070   0.111041821843239   1.0000000
B2   B   0.904927974785357   0.809723512499331   0.111034126652518   1.0000000
B2   B   0.047733852472720   0.952527998811373   0.110984586124975   1.0000000
B2   B   0.047814865276401   0.095384029728590   0.110989859968346   1.0000000
B2   B   0.047881359224239   0.238207759431255   0.110981117644518   1.0000000
B2   B   0.047804731364715   0.380973752356382   0.111002712735428   1.0000000
B2   B   0.047707139881052   0.523767885060685   0.110990244575695   1.0000000
B2   B   0.047754554069576   0.666702836300592   0.111002492497134   1.0000000
B2   B   0.047773651535388   0.809631467011992   0.110973072411660   1.0000000
B2   B   0.190531782476683   0.952431562655662   0.110967967918256   1.0000000
B2   B   0.190639247272579   0.095427035594593   0.111014980502581   1.0000000
B2   B   0.191083509021112   0.238313686418379   0.110978567817150   1.0000000
B2   B   0.191082567665913   0.381306490149853   0.110966687993896   1.0000000
B2   B   0.190603950693421   0.523750555549582   0.111050964403827   1.0000000
B2   B   0.190508644586991   0.666663109025081   0.111064829989274   1.0000000
B2   B   0.190589680118685   0.809590359111839   0.110982676144871   1.0000000
B2   B   0.333459548920509   0.952451383725005   0.110998895302080   1.0000000
B2   B   0.333356116186211   0.095201216125542   0.111041962624078   1.0000000
B2   B   0.333555094729591   0.238158233467563   0.111069882144825   1.0000000
B2   B   0.335011975035153   0.381674667907945   0.111064301682865   1.0000000
B2   B   0.333506498377686   0.523988220008661   0.111075560393326   1.0000000
B2   B   0.333321898177573   0.666726830711862   0.111100077161408   1.0000000
B2   B   0.333451746014010   0.809597131516920   0.111062728189142   1.0000000
B2   B   0.476274406621876   0.952433873382447   0.110988399533812   1.0000000
B2   B   0.476266270650538   0.095658049742496   0.110966596540601   1.0000000
B2   B   0.475927107780018   0.238655303066507   0.111044658334534   1.0000000
B2   B   0.475897566564866   0.665895197482106   0.111064004776506   1.0000000
B2   B   0.476264901967204   0.809202481991076   0.111034613019739   1.0000000
B2   B   0.619042010180587   0.952322623523238   0.110992523170315   1.0000000
B2   B   0.619029413685740   0.095295521918535   0.110979404501778   1.0000000
B2   B   0.618853989184828   0.238134544836563   0.110982322099458   1.0000000
B2   B   0.617889503555441   0.380888759529808   0.111016215788866   1.0000000
B2   B   0.621547933626588   0.525057778916202   0.111103574333722   1.0000000
B2   B   0.617957292401919   0.665554892805453   0.111012738063494   1.0000000
B2   B   0.618872058208503   0.809320193282299   0.110975797938449   1.0000000
B2   B   0.761813031356160   0.952282751964027   0.110988885926948   1.0000000
B2   B   0.761889815464359   0.095225739672536   0.111041904389001   1.0000000
B2   B   0.761785399844531   0.238080911196827   0.111044971685529   1.0000000
B2   B   0.761348132044042   0.380855987239440   0.110986811991257   1.0000000
B2   B   0.762477401525481   0.523948231753191   0.111025488742840   1.0000000
B2   B   0.762485329858184   0.667096450646335   0.111025682032837   1.0000000
B2   B   0.761386520893220   0.809082132675181   0.110990665723012   1.0000000
C2   C   0.475275567064402   0.380054655868066   0.111411606866571   1.0000000
C2   C   0.475085497718525   0.523915983519943   0.111352261557661   1.0000000
C2   C   0.519371654782968   0.474048812864630   0.111351926943891   1.0000000
N2   N   0.952450652637041   0.904885540765160   0.110991082198070   1.0000000
N2   N   0.952442605343258   0.047645445676704   0.110990032855505   1.0000000
N2   N   0.952589358655664   0.190572165211224   0.111010070568056   1.0000000
N2   N   0.952436565553740   0.333352934946441   0.110994145200601   1.0000000
N2   N   0.952437333016194   0.476126481700583   0.110933651170768   1.0000000
N2   N   0.952453384246836   0.619030709894537   0.110992787665260   1.0000000
N2   N   0.952461898140114   0.761980219347957   0.111013681942875   1.0000000
N2   N   0.095255425168780   0.904808952142719   0.110940513275565   1.0000000
N2   N   0.095356004913859   0.047785056509450   0.110978267654004   1.0000000
N2   N   0.095758855101325   0.190858000216886   0.110961940969114   1.0000000
N2   N   0.095769136403579   0.333458979285930   0.110961940575891   1.0000000
N2   N   0.095342976425610   0.476125460207168   0.110998261123414   1.0000000
N2   N   0.095245379434750   0.619005532438249   0.111003920503799   1.0000000
N2   N   0.095305865738434   0.761934296583071   0.110959191026337   1.0000000
N2   N   0.238153612971724   0.904788396969456   0.110955832418212   1.0000000
N2   N   0.238032990170275   0.047558603941741   0.110998762256973   1.0000000
N2   N   0.238220152159641   0.190666772081966   0.110997198663220   1.0000000
N2   N   0.239991599832068   0.334282185979915   0.110941446821016   1.0000000
N2   N   0.238220132411922   0.476119892296573   0.110994234097913   1.0000000
N2   N   0.238021622510664   0.619023828278525   0.111071533415371   1.0000000
N2   N   0.238150131845765   0.761926807866091   0.111024771695109   1.0000000
N2   N   0.381074014806586   0.904819517974791   0.111004127839135   1.0000000
N2   N   0.381045088867349   0.047637409903327   0.110987637509460   1.0000000
N2   N   0.380778814017989   0.190093233667336   0.111054386536824   1.0000000
N2   N   0.381913551136556   0.332535494773304   0.111117118041430   1.0000000
N2   N   0.382010556315460   0.478027336055269   0.111113921100492   1.0000000
N2   N   0.380768890521196   0.619256002474047   0.111084227936854   1.0000000
N2   N   0.381041751729071   0.761967233234094   0.111062463478586   1.0000000
N2   N   0.523846755680855   0.904581281653911   0.110984326297129   1.0000000
N2   N   0.523841392387635   0.047826434673044   0.110938045611067   1.0000000
N2   N   0.523825535253198   0.191182895337305   0.110955648693502   1.0000000
N2   N   0.522085860092466   0.334219671051849   0.111096561103496   1.0000000
N2   N   0.521978195703073   0.616352289577061   0.111097741801344   1.0000000
N2   N   0.523830598537907   0.761221583016239   0.110990967757522   1.0000000
N2   N   0.666587141798265   0.904592049770732   0.110967101948171   1.0000000
N2   N   0.666651295342405   0.047606123820272   0.110988424500885   1.0000000
N2   N   0.666576589490691   0.190549916801455   0.110996689605399   1.0000000
N2   N   0.665732974938484   0.333377250484441   0.110961971507811   1.0000000
N2   N   0.667210136235340   0.476551019245693   0.111010698299666   1.0000000
N2   N   0.667274946609526   0.619288351300019   0.110996313604179   1.0000000
N2   N   0.665708912189297   0.760894539687218   0.110954850323802   1.0000000
N2   N   0.809208544397941   0.904420226107254   0.110969592651448   1.0000000
N2   N   0.809551358857335   0.047589887668458   0.111014688046148   1.0000000
N2   N   0.809545572193280   0.190512076969450   0.111039794757658   1.0000000
N2   N   0.809199222787905   0.333347933038114   0.110994239268285   1.0000000
N2   N   0.809628023277098   0.476153643409967   0.110982723079440   1.0000000
N2   N   0.809689256115515   0.619125164801479   0.111024880018645   1.0000000
N2   N   0.809647531454668   0.762063578259584   0.111009894899026   1.0000000


