data_1
_audit_creation_method   'vasp2cif'
_cell_length_a    17.52789999999977
_cell_length_b    17.52789999999977
_cell_length_c    15.0
_cell_angle_alpha    90.0
_cell_angle_beta    90.0
_cell_angle_gamma    119.99999999999916

_symmetry_space_group_name_H-M    'P 1'
loop_
_atom_site_label
_atom_site_type_symbol
_atom_site_fract_x
_atom_site_fract_y
_atom_site_fract_z
_atom_site_occupancy
S2   S   0.389641925558233   0.483863279722759   0.110994206578077   1.0000000
B2   B   0.906978778108730   0.951897568197169   0.110762908552454   1.0000000
B2   B   0.908317842607774   0.095277749940539   0.110778533620629   1.0000000
B2   B   0.908552945433401   0.238044041815235   0.110712346306577   1.0000000
B2   B   0.908074558393125   0.380789893401564   0.110655952968516   1.0000000
B2   B   0.906110047044425   0.523350373894964   0.110749775806240   1.0000000
B2   B   0.904102079540403   0.665375227141283   0.110756219848074   1.0000000
B2   B   0.903813030184561   0.807134863369718   0.110697416012480   1.0000000
B2   B   0.049091019981119   0.952114299823808   0.110684118495208   1.0000000
B2   B   0.050824229137060   0.095323747092319   0.110757901588445   1.0000000
B2   B   0.051525114048579   0.238454783846834   0.110802883585139   1.0000000
B2   B   0.050525818748729   0.381496594832171   0.110697511723999   1.0000000
B2   B   0.048338484208465   0.524525976403970   0.110683833555316   1.0000000
B2   B   0.047753603247359   0.667012035813337   0.110741372690555   1.0000000
B2   B   0.047819073359060   0.809287573906556   0.110685979193176   1.0000000
B2   B   0.191923505514826   0.952812814936887   0.110661983345691   1.0000000
B2   B   0.194378662328366   0.096466898158645   0.110693123302254   1.0000000
B2   B   0.194473198444376   0.238115396832816   0.110812396648273   1.0000000
B2   B   0.194009539426569   0.382397164364716   0.110805772949606   1.0000000
B2   B   0.189532649794133   0.525617559657910   0.110712368435691   1.0000000
B2   B   0.190609716855453   0.668524647721536   0.110759063137860   1.0000000
B2   B   0.191009369136984   0.810552240688331   0.110705283253147   1.0000000
B2   B   0.334982407682192   0.953319082220493   0.110728454177401   1.0000000
B2   B   0.336243020508821   0.094861317486200   0.110690112186863   1.0000000
B2   B   0.341535698168160   0.239187372671217   0.110771834370793   1.0000000
B2   B   0.337969415739308   0.370920485155422   0.110892030820336   1.0000000
B2   B   0.329449792317943   0.535255644630062   0.110817625321269   1.0000000
B2   B   0.333669811802534   0.673030172749668   0.110745715690859   1.0000000
B2   B   0.334280464716464   0.812567654042583   0.110813763891389   1.0000000
B2   B   0.478581466544613   0.953890455877950   0.110782625232072   1.0000000
B2   B   0.479250301418311   0.094815363454989   0.110779562955388   1.0000000
B2   B   0.480762616598632   0.236346559785618   0.110703849906577   1.0000000
B2   B   0.495704236256031   0.388357511396980   0.110777335711918   1.0000000
B2   B   0.476670867610448   0.674084077368282   0.110653472120768   1.0000000
B2   B   0.478356242130710   0.813600071404862   0.110738212475082   1.0000000
B2   B   0.622187601959568   0.953355866473968   0.110713779088343   1.0000000
B2   B   0.622520208191483   0.094902502339976   0.110722600504546   1.0000000
B2   B   0.623121383585292   0.236304592402237   0.110717205946060   1.0000000
B2   B   0.624714738817312   0.377411698729082   0.110745709415517   1.0000000
B2   B   0.608335089136028   0.505530713367256   0.110759267215713   1.0000000
B2   B   0.622279339317481   0.667111166969342   0.110720572149754   1.0000000
B2   B   0.621836858604797   0.811104398397473   0.110698657022258   1.0000000
B2   B   0.765028455181844   0.952512460310423   0.110753333530189   1.0000000
B2   B   0.765596326896688   0.095187002782644   0.110726820786225   1.0000000
B2   B   0.765880656852333   0.237479507640852   0.110687551057975   1.0000000
B2   B   0.766059277223954   0.379858809020740   0.110691561002808   1.0000000
B2   B   0.762900368516748   0.521541533760788   0.110765373060615   1.0000000
B2   B   0.757018397110314   0.660279670988581   0.110727606928361   1.0000000
B2   B   0.763609914710582   0.808721410115401   0.110693815322246   1.0000000
N2   N   0.953239214638284   0.903326131411651   0.110701337768808   1.0000000
N2   N   0.955477129639856   0.047425553022992   0.110764555208988   1.0000000
N2   N   0.956372825501542   0.190673854857245   0.110753412205409   1.0000000
N2   N   0.955856893645819   0.333278648861107   0.110654187720691   1.0000000
N2   N   0.953984451332176   0.476036924392588   0.110673877912834   1.0000000
N2   N   0.952690242824804   0.618641179643882   0.110755057771938   1.0000000
N2   N   0.952285931813543   0.760743183644045   0.110690276447188   1.0000000
N2   N   0.096409854103663   0.904620260611164   0.110647082177733   1.0000000
N2   N   0.098310911749349   0.047924284917457   0.110680636529949   1.0000000
N2   N   0.099141628377166   0.190808178457182   0.110777776548117   1.0000000
N2   N   0.099139293101232   0.334169291197834   0.110760369353504   1.0000000
N2   N   0.095616475470605   0.476832250729207   0.110655124097507   1.0000000
N2   N   0.095649859200231   0.619843395276122   0.110712769592488   1.0000000
N2   N   0.095701355481796   0.762231059578460   0.110687565347623   1.0000000
N2   N   0.239520864575295   0.905527899534619   0.110661034847145   1.0000000
N2   N   0.240760334574328   0.047917218609559   0.110647861581901   1.0000000
N2   N   0.244023720986142   0.192233258358846   0.110750788211798   1.0000000
N2   N   0.242492368466582   0.333540999420453   0.110847938118659   1.0000000
N2   N   0.236337691638694   0.478076518078414   0.110739978550672   1.0000000
N2   N   0.238412663509463   0.621592509418414   0.110736724212788   1.0000000
N2   N   0.238936035332257   0.763653895527193   0.110754921405144   1.0000000
N2   N   0.383063794923926   0.906790632081318   0.110783201619668   1.0000000
N2   N   0.383763451589108   0.047742656515548   0.110718060595934   1.0000000
N2   N   0.385610787590332   0.189355543741818   0.110676611810127   1.0000000
N2   N   0.393992924543194   0.334752406752096   0.110821403758443   1.0000000
N2   N   0.382554430115922   0.628108077003679   0.110673042419663   1.0000000
N2   N   0.382790709406184   0.766678151388561   0.110769517880151   1.0000000
N2   N   0.526850707978597   0.907397268239054   0.110725341368665   1.0000000
N2   N   0.527172472363809   0.048041127794814   0.110763207893617   1.0000000
N2   N   0.527980293891614   0.188995901987725   0.110719513162649   1.0000000
N2   N   0.530322991808616   0.330358635643170   0.110726082375947   1.0000000
N2   N   0.493143770219005   0.541937910030649   0.111112690381228   1.0000000
N2   N   0.526624607300097   0.628394880689502   0.110708756064551   1.0000000
N2   N   0.526579849278524   0.767004566345609   0.110655360672258   1.0000000
N2   N   0.669767201612886   0.905646852559661   0.110702624094150   1.0000000
N2   N   0.670397822636553   0.047855923464497   0.110694117612297   1.0000000
N2   N   0.670840562729175   0.189406572819196   0.110692701400876   1.0000000
N2   N   0.671760910666938   0.330770043195169   0.110689432348867   1.0000000
N2   N   0.668650507874016   0.472037918258376   0.110751909876316   1.0000000
N2   N   0.659023781603013   0.609099959222961   0.110726502130303   1.0000000
N2   N   0.668615806354339   0.762069068687977   0.110669038793535   1.0000000
N2   N   0.811780696601046   0.904182297743048   0.110738588076809   1.0000000
N2   N   0.813087439451472   0.047614253433609   0.110750474831300   1.0000000
N2   N   0.813558128931039   0.190162468742815   0.110695569679087   1.0000000
N2   N   0.813554010072507   0.332504982890873   0.110650142379831   1.0000000
N2   N   0.811699839072047   0.474934430547918   0.110718336641700   1.0000000
N2   N   0.808582825831274   0.616650994031366   0.110747818488068   1.0000000
N2   N   0.807570762802476   0.757840146644241   0.110685408752419   1.0000000


