data_1
_audit_creation_method   'vasp2cif'
_cell_length_a    14.93631414619966
_cell_length_b    14.936314146199727
_cell_length_c    13.341276283792837
_cell_angle_alpha    90.0
_cell_angle_beta    90.0
_cell_angle_gamma    119.99999999999984

_symmetry_space_group_name_H-M    'P 1'
loop_
_atom_site_label
_atom_site_type_symbol
_atom_site_fract_x
_atom_site_fract_y
_atom_site_fract_z
_atom_site_occupancy
S2   S   0.469266945010527   0.401300139171928   0.375000000000000   1.0000000
N2   N   0.111086426976788   0.055523305113471   0.125213492299456   1.0000000
N2   N   0.611031855013147   0.555493176335324   0.126651974207105   1.0000000
N2   N   0.444418640908036   0.055530332780179   0.125323683691180   1.0000000
N2   N   0.944439721559644   0.555563169659432   0.125332410383688   1.0000000
N2   N   0.777743737764770   0.055538535549053   0.125116889383191   1.0000000
N2   N   0.111110768214694   0.722222050774011   0.624852423190821   1.0000000
N2   N   0.444418640908036   0.722221641461192   0.624676316308820   1.0000000
N2   N   0.277719797160669   0.222188584665327   0.624921176296135   1.0000000
N2   N   0.777734319057358   0.722175847229968   0.624225950621533   1.0000000
N2   N   0.611066002285275   0.222209399107982   0.624264664031929   1.0000000
N2   N   0.944415102565899   0.222219970560798   0.624874638951789   1.0000000
N2   N   0.277766263829336   0.722225130553066   0.125148469897903   1.0000000
N2   N   0.111066373405691   0.222199853369510   0.125164863491836   1.0000000
N2   N   0.444412556079202   0.222195359812880   0.125402437216080   1.0000000
N2   N   0.611066002285275   0.722189936510621   0.125735335968070   1.0000000
N2   N   0.944439721559644   0.722209885233547   0.125332410383688   1.0000000
N2   N   0.777745926987317   0.222219820755477   0.125231520292961   1.0000000
N2   N   0.111104822235204   0.888870328257519   0.624852253860731   1.0000000
N2   N   0.444420090158232   0.888876711745780   0.624832535598897   1.0000000
N2   N   0.277719797160669   0.388864545828671   0.624921176296135   1.0000000
N2   N   0.611031855013147   0.388872012011153   0.623348025792895   1.0000000
N2   N   0.777745926987317   0.888859439565169   0.624768479707039   1.0000000
N2   N   0.944425809613070   0.388903755827869   0.624792660156099   1.0000000
N2   N   0.111086426976788   0.388896455196646   0.125213492299456   1.0000000
N2   N   0.277766263829336   0.888874466609598   0.125148469897903   1.0000000
N2   N   0.611075002918776   0.888871838581923   0.125193529654763   1.0000000
N2   N   0.444279697351217   0.388806515342273   0.123337134678278   1.0000000
N2   N   0.944425809613070   0.888855387118530   0.125207339843901   1.0000000
N2   N   0.777734319057358   0.388891805160718   0.125774049378467   1.0000000
N2   N   0.277758371407209   0.555562350614473   0.624782313935733   1.0000000
N2   N   0.111086426976788   0.055523305113471   0.624786507700544   1.0000000
N2   N   0.611031855013147   0.555493176335324   0.623348025792895   1.0000000
N2   N   0.444418640908036   0.055530332780179   0.624676316308820   1.0000000
N2   N   0.944439721559644   0.555563169659432   0.624667589616312   1.0000000
N2   N   0.111104822235204   0.555567827311014   0.125147746139269   1.0000000
N2   N   0.777743737764770   0.055538535549053   0.624883110616809   1.0000000
N2   N   0.277758371407209   0.055529354126072   0.125217686064267   1.0000000
N2   N   0.444412556079202   0.555550529599658   0.125402437216080   1.0000000
N2   N   0.777750308157806   0.555541820745571   0.126013955906871   1.0000000
N2   N   0.611075002918776   0.055536497670182   0.125193529654763   1.0000000
N2   N   0.444412556079202   0.555550529599658   0.624597562783919   1.0000000
N2   N   0.944415102565899   0.055528465338437   0.125125361048212   1.0000000
N2   N   0.277766263829336   0.722225130553066   0.624851530102097   1.0000000
N2   N   0.111066373405691   0.222199853369510   0.624835136508163   1.0000000
N2   N   0.444412556079202   0.222195359812880   0.624597562783919   1.0000000
N2   N   0.611066002285275   0.722189936510621   0.624264664031929   1.0000000
N2   N   0.944439721559644   0.722209885233547   0.624667589616312   1.0000000
N2   N   0.777745926987317   0.222219820755477   0.624768479707039   1.0000000
N2   N   0.111110768214694   0.722222050774011   0.125147576809180   1.0000000
N2   N   0.444418640908036   0.722221641461192   0.125323683691180   1.0000000
N2   N   0.277719797160669   0.222188584665327   0.125078823703865   1.0000000
N2   N   0.777734319057358   0.722175847229968   0.125774049378467   1.0000000
N2   N   0.611066002285275   0.222209399107982   0.125735335968070   1.0000000
N2   N   0.944415102565899   0.222219970560798   0.125125361048212   1.0000000
N2   N   0.111086426976788   0.388896455196646   0.624786507700544   1.0000000
N2   N   0.277766263829336   0.888874466609598   0.624851530102097   1.0000000
N2   N   0.611075002918776   0.888871838581923   0.624806470345237   1.0000000
N2   N   0.444279697351217   0.388806515342273   0.626662865321722   1.0000000
N2   N   0.944425809613070   0.888855387118530   0.624792660156099   1.0000000
N2   N   0.111104822235204   0.888870328257519   0.125147746139269   1.0000000
N2   N   0.777734319057358   0.388891805160718   0.624225950621533   1.0000000
N2   N   0.444420090158232   0.888876711745780   0.125167464401104   1.0000000
N2   N   0.277719797160669   0.388864545828671   0.125078823703865   1.0000000
N2   N   0.277758371407209   0.555562350614473   0.125217686064267   1.0000000
N2   N   0.611031855013147   0.388872012011153   0.126651974207105   1.0000000
N2   N   0.777745926987317   0.888859439565169   0.125231520292961   1.0000000
N2   N   0.944425809613070   0.388903755827869   0.125207339843901   1.0000000
N2   N   0.111104822235204   0.555567827311014   0.624852253860731   1.0000000
N2   N   0.277758371407209   0.055529354126072   0.624782313935733   1.0000000
N2   N   0.777750308157806   0.555541820745571   0.623986044093129   1.0000000
N2   N   0.611075002918776   0.055536497670182   0.624806470345237   1.0000000
N2   N   0.944415102565899   0.055528465338437   0.624874638951789   1.0000000
N2   N   0.057269141564039   0.112123310973063   0.375000000000000   1.0000000
N2   N   0.554053691529293   0.613176172739094   0.375000000000000   1.0000000
N2   N   0.388581288825638   0.108665969238583   0.375000000000000   1.0000000
N2   N   0.889802540632655   0.611567936982999   0.375000000000000   1.0000000
N2   N   0.723505824896187   0.111400726240982   0.375000000000000   1.0000000
N2   N   0.055533926519298   0.777769401083541   0.875000000000000   1.0000000
N2   N   0.388882999303958   0.777772502151645   0.875000000000000   1.0000000
N2   N   0.222205799512396   0.277769566422866   0.875000000000000   1.0000000
N2   N   0.722212814200124   0.777772086782082   0.875000000000000   1.0000000
N2   N   0.555549854185753   0.277781090386786   0.875000000000000   1.0000000
N2   N   0.888877515964625   0.277771142929343   0.875000000000000   1.0000000
N2   N   0.222370539182226   0.777851936257781   0.375000000000000   1.0000000
N2   N   0.057269141564039   0.278479163924312   0.375000000000000   1.0000000
N2   N   0.390367670945878   0.274543655351192   0.375000000000000   1.0000000
N2   N   0.556062693692089   0.779505659121837   0.375000000000000   1.0000000
N2   N   0.890351005078682   0.778915287053743   0.375000000000000   1.0000000
N2   N   0.723405436466201   0.277521567210050   0.375000000000000   1.0000000
N2   N   0.055536535064748   0.944437334294767   0.875000000000000   1.0000000
N2   N   0.388882999303958   0.944443830485649   0.875000000000000   1.0000000
N2   N   0.222204661962066   0.444433867243138   0.875000000000000   1.0000000
N2   N   0.555554872907918   0.444444103120623   0.875000000000000   1.0000000
N2   N   0.722214728600795   0.944440333737400   0.875000000000000   1.0000000
N2   N   0.888872511832356   0.444433430487125   0.875000000000000   1.0000000
N2   N   0.056886625234009   0.444786639423871   0.375000000000000   1.0000000
N2   N   0.222358321812191   0.944094063331882   0.375000000000000   1.0000000
N2   N   0.556333380569971   0.944833356951650   0.375000000000000   1.0000000
N2   N   0.390367670945878   0.449157348928021   0.375000000000000   1.0000000
N2   N   0.890370577050108   0.945588809156843   0.375000000000000   1.0000000
N2   N   0.724069736395084   0.446036572402753   0.375000000000000   1.0000000
N2   N   0.222205508162254   0.611099594537542   0.875000000000000   1.0000000
N2   N   0.055538966306550   0.111102788887024   0.875000000000000   1.0000000
N2   N   0.555549854185753   0.611102097132303   0.875000000000000   1.0000000
N2   N   0.388879446506411   0.111110496010084   0.875000000000000   1.0000000
N2   N   0.888869933487815   0.611101633410579   0.875000000000000   1.0000000
N2   N   0.056036204669477   0.611315506904891   0.375000000000000   1.0000000
N2   N   0.722214728600795   0.111107728196730   0.875000000000000   1.0000000
N2   N   0.224030599879883   0.111979038751771   0.375000000000000   1.0000000
N2   N   0.388581288825638   0.613248652920398   0.375000000000000   1.0000000
N2   N   0.724069736395085   0.611366497325666   0.375000000000000   1.0000000
N2   N   0.556062693692089   0.109890367903588   0.375000000000000   1.0000000
N2   N   0.388879446506411   0.611102283829669   0.875000000000000   1.0000000
N2   N   0.890455891631688   0.111894612482515   0.375000000000000   1.0000000
N2   N   0.222206846808320   0.777770090070828   0.875000000000000   1.0000000
N2   N   0.055538966306550   0.277769510752862   0.875000000000000   1.0000000
N2   N   0.388876449295336   0.277768511953916   0.875000000000000   1.0000000
N2   N   0.555550387680085   0.777771211499476   0.875000000000000   1.0000000
N2   N   0.888872511832356   0.777772414678567   0.875000000000000   1.0000000
N2   N   0.722212814200124   0.277774060751378   0.875000000000000   1.0000000
N2   N   0.056036204669477   0.778054031097921   0.375000000000000   1.0000000
N2   N   0.389129057732603   0.778545786146674   0.375000000000000   1.0000000
N2   N   0.224244459917481   0.278788896625408   0.375000000000000   1.0000000
N2   N   0.723405436466201   0.779217202589486   0.375000000000000   1.0000000
N2   N   0.554053691529293   0.274210852123535   0.375000000000000   1.0000000
N2   N   0.890370577050108   0.278115101226600   0.375000000000000   1.0000000
N2   N   0.055536535064748   0.444432534103310   0.875000000000000   1.0000000
N2   N   0.222205508162254   0.944439246958047   0.875000000000000   1.0000000
N2   N   0.555551082644789   0.944442207989059   0.875000000000000   1.0000000
N2   N   0.388876449295336   0.444441270674755   0.875000000000000   1.0000000
N2   N   0.888877515964625   0.944439706368618   0.875000000000000   1.0000000
N2   N   0.056886625234009   0.945433319143467   0.375000000000000   1.0000000
N2   N   0.722208586939895   0.444438343073607   0.875000000000000   1.0000000
N2   N   0.389129057732603   0.943916604919264   0.375000000000000   1.0000000
N2   N   0.224030599879883   0.445384894461448   0.375000000000000   1.0000000
N2   N   0.222358321812191   0.611597591813644   0.375000000000000   1.0000000
N2   N   0.723505824896187   0.945438431988541   0.375000000000000   1.0000000
N2   N   0.890351005078682   0.444769051358274   0.375000000000000   1.0000000
N2   N   0.055533926519298   0.611097858769093   0.875000000000000   1.0000000
N2   N   0.222204661962066   0.111104128052264   0.875000000000000   1.0000000
N2   N   0.722208586939895   0.611103577199622   0.875000000000000   1.0000000
N2   N   0.555550387680085   0.111112509513945   0.875000000000000   1.0000000
N2   N   0.888877816634767   0.111105574984055   0.875000000000000   1.0000000
B2   B   0.112367812546007   0.056476051723567   0.375000000000000   1.0000000
B2   B   0.622891901607853   0.580809661487174   0.375000000000000   1.0000000
B2   B   0.444577715673756   0.053665744019246   0.375000000000000   1.0000000
B2   B   0.946147107257010   0.555999485933791   0.375000000000000   1.0000000
B2   B   0.779638917079419   0.056486125206377   0.375000000000000   1.0000000
B2   B   0.111116216287186   0.722224774810258   0.875000000000000   1.0000000
B2   B   0.444415224838968   0.722232395080937   0.875000000000000   1.0000000
B2   B   0.277703559314021   0.222180192440231   0.875000000000000   1.0000000
B2   B   0.777811019416237   0.722281516868463   0.875000000000000   1.0000000
B2   B   0.611108133663541   0.222175340775875   0.875000000000000   1.0000000
B2   B   0.944444306760384   0.222206421951146   0.875000000000000   1.0000000
B2   B   0.277892209930019   0.722642331101570   0.375000000000000   1.0000000
B2   B   0.112361503416164   0.222847418374746   0.375000000000000   1.0000000
B2   B   0.442283206038520   0.216838996816743   0.375000000000000   1.0000000
B2   B   0.613190464793443   0.728098741911141   0.375000000000000   1.0000000
B2   B   0.946147107257010   0.723480954656554   0.375000000000000   1.0000000
B2   B   0.779909089511634   0.221799289186618   0.375000000000000   1.0000000
B2   B   0.111103157089028   0.888895206393010   0.875000000000000   1.0000000
B2   B   0.444429614206036   0.888881473769683   0.875000000000000   1.0000000
B2   B   0.277703559314021   0.388856700207118   0.875000000000000   1.0000000
B2   B   0.611095750792290   0.388865784369171   0.875000000000000   1.0000000
B2   B   0.777800927764107   0.888942577638642   0.875000000000000   1.0000000
B2   B   0.944462078046507   0.388863772422010   0.875000000000000   1.0000000
B2   B   0.112367812546007   0.389225094155768   0.375000000000000   1.0000000
B2   B   0.277892209930019   0.888583212161777   0.375000000000000   1.0000000
B2   B   0.612649052283699   0.890880527012158   0.375000000000000   1.0000000
B2   B   0.946370723337400   0.890906581200980   0.375000000000000   1.0000000
B2   B   0.781472225872119   0.387700451117630   0.375000000000000   1.0000000
B2   B   0.277727465168562   0.555539268473273   0.875000000000000   1.0000000
B2   B   0.111076477641145   0.055548138858660   0.875000000000000   1.0000000
B2   B   0.611095750792290   0.555563299756447   0.875000000000000   1.0000000
B2   B   0.444415224838968   0.055516163091367   0.875000000000000   1.0000000
B2   B   0.944478061994165   0.555554253714077   0.875000000000000   1.0000000
B2   B   0.111636280934220   0.555782036998482   0.375000000000000   1.0000000
B2   B   0.777793711007582   0.055563522170459   0.875000000000000   1.0000000
B2   B   0.277352561210177   0.054264001468655   0.375000000000000   1.0000000
B2   B   0.442283206038520   0.558777542555113   0.375000000000000   1.0000000
B2   B   0.781515680223359   0.557424506778347   0.375000000000000   1.0000000
B2   B   0.612649052283699   0.055101858604869   0.375000000000000   1.0000000
B2   B   0.444383608096480   0.555547620125811   0.875000000000000   1.0000000
B2   B   0.946202782357049   0.056831225691369   0.375000000000000   1.0000000
B2   B   0.277755677226437   0.722215085132219   0.875000000000000   1.0000000
B2   B   0.111064801567177   0.222199067450253   0.875000000000000   1.0000000
B2   B   0.444383608096480   0.222169321304005   0.875000000000000   1.0000000
B2   B   0.611108133663541   0.722266126220995   0.875000000000000   1.0000000
B2   B   0.944478061994165   0.722257141613424   0.875000000000000   1.0000000
B2   B   0.777800927764107   0.222191683458793   0.875000000000000   1.0000000
B2   B   0.111686467193731   0.722509900263530   0.375000000000000   1.0000000
B2   B   0.444577715673756   0.724245304987846   0.375000000000000   1.0000000
B2   B   0.277865280237180   0.222314460214037   0.375000000000000   1.0000000
B2   B   0.781472225872119   0.727105108087818   0.375000000000000   1.0000000
B2   B   0.613190464793443   0.218425056215630   0.375000000000000   1.0000000
B2   B   0.946202782357049   0.222704889999015   0.375000000000000   1.0000000
B2   B   0.111076477641145   0.388861672115813   0.875000000000000   1.0000000
B2   B   0.277755677226437   0.888873925427547   0.875000000000000   1.0000000
B2   B   0.611116286208816   0.888913928995598   0.875000000000000   1.0000000
B2   B   0.444375709753573   0.388854521543451   0.875000000000000   1.0000000
B2   B   0.944462078046507   0.888931638957826   0.875000000000000   1.0000000
B2   B   0.111636280934220   0.889187577269067   0.375000000000000   1.0000000
B2   B   0.777811019416237   0.388862835881103   0.875000000000000   1.0000000
B2   B   0.445060661737956   0.889196997535642   0.375000000000000   1.0000000
B2   B   0.277865280237180   0.388884153356471   0.375000000000000   1.0000000
B2   B   0.277352561210177   0.556421893074858   0.375000000000000   1.0000000
B2   B   0.622891901607853   0.375415573454008   0.375000000000000   1.0000000
B2   B   0.779909089511634   0.891443133658344   0.375000000000000   1.0000000
B2   B   0.946370723337400   0.388797475469750   0.375000000000000   1.0000000
B2   B   0.111103157089028   0.555541284029347   0.875000000000000   1.0000000
B2   B   0.277727465168562   0.055521530028624   0.875000000000000   1.0000000
B2   B   0.777815776780856   0.555574555057096   0.875000000000000   1.0000000
B2   B   0.611116286208816   0.055535690546546   0.875000000000000   1.0000000
B2   B   0.944444306760384   0.055571218142574   0.875000000000000   1.0000000
B2   B   0.055507822752261   0.111075940024072   0.124723291898464   1.0000000
B2   B   0.555388221920060   0.611193498987884   0.124721365154772   1.0000000
B2   B   0.388735798448294   0.110886676603353   0.124675367540823   1.0000000
B2   B   0.889135002780794   0.611234168057068   0.124740547832306   1.0000000
B2   B   0.722201075410336   0.111037653898533   0.124667172957762   1.0000000
B2   B   0.055697553791786   0.777839986615548   0.625300616639453   1.0000000
B2   B   0.388794697346195   0.777804082352073   0.625272870177317   1.0000000
B2   B   0.222048077128168   0.277690705230752   0.625522268299354   1.0000000
B2   B   0.722263443190105   0.777940828847510   0.625244856271236   1.0000000
B2   B   0.555388221920060   0.277528056265512   0.625278634845227   1.0000000
B2   B   0.888941416711953   0.277763288023788   0.625314100730867   1.0000000
B2   B   0.222235004582110   0.777784168957723   0.124718242487538   1.0000000
B2   B   0.055507822752261   0.277765216061524   0.124723291898464   1.0000000
B2   B   0.388659504213508   0.277632598717976   0.123701406495179   1.0000000
B2   B   0.555447862352754   0.777884713904723   0.124724078758864   1.0000000
B2   B   0.889062673329975   0.777907109244672   0.124733011244555   1.0000000
B2   B   0.722263443190105   0.277655947675931   0.124755143728764   1.0000000
B2   B   0.055599171032576   0.944442519586102   0.625279669203985   1.0000000
B2   B   0.388794697346195   0.944323948327458   0.625272870177317   1.0000000
B2   B   0.222097639364176   0.444458738853666   0.625327961726134   1.0000000
B2   B   0.555216822571801   0.444275077952565   0.625437046246527   1.0000000
B2   B   0.722201075410336   0.944496754845138   0.625332827042238   1.0000000
B2   B   0.889062673329975   0.444488897418639   0.625266988755445   1.0000000
B2   B   0.055599171032576   0.444489984779803   0.124720330796015   1.0000000
B2   B   0.222193044946379   0.944358320919212   0.124712018054064   1.0000000
B2   B   0.555466926235261   0.944400129784295   0.124680291050619   1.0000000
B2   B   0.388659504213508   0.444360238828867   0.123701406495179   1.0000000
B2   B   0.888941416711953   0.944511462021500   0.124685899269133   1.0000000
B2   B   0.722311432515045   0.444436415890404   0.124958716799856   1.0000000
B2   B   0.222193044946379   0.611168057360504   0.625287981945936   1.0000000
B2   B   0.055507822752261   0.111075940024072   0.625276708101535   1.0000000
B2   B   0.555388221920060   0.611193498987884   0.625278634845227   1.0000000
B2   B   0.388735798448294   0.110886676603353   0.625324632459177   1.0000000
B2   B   0.889135002780794   0.611234168057068   0.625259452167694   1.0000000
B2   B   0.055697553791786   0.611190900509573   0.124699383360547   1.0000000
B2   B   0.722201075410336   0.111037653898533   0.625332827042238   1.0000000
B2   B   0.222097639364176   0.110972233843845   0.124672038273866   1.0000000
B2   B   0.388735798448294   0.611182455178284   0.124675367540823   1.0000000
B2   B   0.722311432515045   0.611208349957977   0.124958716799856   1.0000000
B2   B   0.555447862352754   0.110896481781367   0.124724078758864   1.0000000
B2   B   0.388735798448294   0.611182455178284   0.625324632459177   1.0000000
B2   B   0.888888517579385   0.111110925456364   0.124693679313643   1.0000000
B2   B   0.222235004582110   0.777784168957723   0.625281757512462   1.0000000
B2   B   0.055507822752261   0.277765216061524   0.625276708101535   1.0000000
B2   B   0.388659504213508   0.277632598717976   0.626298593504821   1.0000000
B2   B   0.555447862352754   0.777884713904723   0.625275921241136   1.0000000
B2   B   0.889062673329975   0.777907109244672   0.625266988755445   1.0000000
B2   B   0.722263443190105   0.277655947675931   0.625244856271236   1.0000000
B2   B   0.055697553791786   0.777839986615548   0.124699383360547   1.0000000
B2   B   0.388794697346195   0.777804082352073   0.124727129822683   1.0000000
B2   B   0.222048077128168   0.277690705230752   0.124477731700646   1.0000000
B2   B   0.722263443190105   0.777940828847510   0.124755143728764   1.0000000
B2   B   0.555388221920060   0.277528056265512   0.124721365154772   1.0000000
B2   B   0.888941416711953   0.277763288023788   0.124685899269133   1.0000000
B2   B   0.055599171032576   0.444489984779803   0.625279669203985   1.0000000
B2   B   0.222193044946379   0.944358320919212   0.625287981945936   1.0000000
B2   B   0.555466926235261   0.944400129784295   0.625319708949381   1.0000000
B2   B   0.388659504213508   0.444360238828867   0.626298593504821   1.0000000
B2   B   0.888941416711953   0.944511462021500   0.625314100730867   1.0000000
B2   B   0.055599171032576   0.944442519586102   0.124720330796015   1.0000000
B2   B   0.722311432515045   0.444436415890404   0.625041283200144   1.0000000
B2   B   0.388794697346195   0.944323948327458   0.124727129822683   1.0000000
B2   B   0.222097639364176   0.444458738853666   0.124672038273866   1.0000000
B2   B   0.222193044946379   0.611168057360504   0.124712018054064   1.0000000
B2   B   0.555216822571801   0.444275077952565   0.124562953753473   1.0000000
B2   B   0.722201075410336   0.944496754845138   0.124667172957762   1.0000000
B2   B   0.889062673329975   0.444488897418639   0.124733011244555   1.0000000
B2   B   0.055697553791786   0.611190900509573   0.625300616639453   1.0000000
B2   B   0.222097639364176   0.110972233843845   0.625327961726134   1.0000000
B2   B   0.722311432515045   0.611208349957977   0.625041283200144   1.0000000
B2   B   0.555447862352754   0.110896481781367   0.625275921241136   1.0000000
B2   B   0.888888517579385   0.111110925456364   0.625306320686357   1.0000000


