data_1
_audit_creation_method   'vasp2cif'
_cell_length_a    17.52789999999977
_cell_length_b    17.52789999999977
_cell_length_c    15.0
_cell_angle_alpha    90.0
_cell_angle_beta    90.0
_cell_angle_gamma    119.99999999999916

_symmetry_space_group_name_H-M    'P 1'
loop_
_atom_site_label
_atom_site_type_symbol
_atom_site_fract_x
_atom_site_fract_y
_atom_site_fract_z
_atom_site_occupancy
Si2   Si   0.412387071021634   0.480294213136395   0.111578058703533   1.0000000
B2   B   0.908688061005721   0.955078196041147   0.110543270837321   1.0000000
B2   B   0.907992633817996   0.097983280964528   0.110679929177690   1.0000000
B2   B   0.907331418059420   0.240538469771901   0.110815010351039   1.0000000
B2   B   0.905838282080335   0.382445822232524   0.110704847175277   1.0000000
B2   B   0.903163581338349   0.524001865724720   0.110644296187872   1.0000000
B2   B   0.905457946515826   0.666433180351242   0.110797261727892   1.0000000
B2   B   0.908261376973451   0.811264999749191   0.110719143156889   1.0000000
B2   B   0.048721206084699   0.950422204344284   0.110609474826091   1.0000000
B2   B   0.048890459952633   0.094161013345488   0.110779167150065   1.0000000
B2   B   0.050393825664077   0.239107817828939   0.110881606539177   1.0000000
B2   B   0.050589108527538   0.381990868367669   0.110795423515008   1.0000000
B2   B   0.048846635911155   0.523714323205547   0.110661879432023   1.0000000
B2   B   0.048521822133157   0.665387333973293   0.110645241452186   1.0000000
B2   B   0.048664966386133   0.807610981788246   0.110612426482242   1.0000000
B2   B   0.190648370113983   0.948171661148048   0.110756615494339   1.0000000
B2   B   0.188663904846340   0.088701391811852   0.110945020144294   1.0000000
B2   B   0.189487632089289   0.232825064002680   0.110954857598627   1.0000000
B2   B   0.195194871126207   0.381121292621099   0.110938459387344   1.0000000
B2   B   0.194082368407398   0.524101852151299   0.110769254330049   1.0000000
B2   B   0.192674263451735   0.665838832374438   0.110692776092901   1.0000000
B2   B   0.191724579497977   0.807148228474871   0.110691634522941   1.0000000
B2   B   0.334508256864884   0.949125251998171   0.110887550570191   1.0000000
B2   B   0.332602749429573   0.087616775913055   0.110924646347244   1.0000000
B2   B   0.328032071127273   0.222196145631843   0.110388979896830   1.0000000
B2   B   0.330703209608822   0.362306494703053   0.110465722832849   1.0000000
B2   B   0.340057100734415   0.532307654021124   0.110962803625441   1.0000000
B2   B   0.337477865676634   0.670035690310865   0.110676166812688   1.0000000
B2   B   0.335889695496511   0.809425789802993   0.110732226003937   1.0000000
B2   B   0.478868410331491   0.952326279457860   0.110839452003227   1.0000000
B2   B   0.477447777738586   0.092915658327421   0.110937666310000   1.0000000
B2   B   0.474899536788476   0.231930495638370   0.110554647011576   1.0000000
B2   B   0.466372289704613   0.363768156641490   0.109544119496834   1.0000000
B2   B   0.483220388870026   0.668875602133372   0.110725915487429   1.0000000
B2   B   0.480527265239225   0.811048660733990   0.110721261244545   1.0000000
B2   B   0.622773820215552   0.956166501860968   0.110711854828871   1.0000000
B2   B   0.621481326120490   0.097573365351393   0.110801888608956   1.0000000
B2   B   0.619811612980314   0.239771378605115   0.110773050873003   1.0000000
B2   B   0.616166756926249   0.383145103157385   0.110519422262288   1.0000000
B2   B   0.612565040863049   0.537507598349011   0.110910348406613   1.0000000
B2   B   0.631890350180362   0.680616748462724   0.111130822990521   1.0000000
B2   B   0.624879838581948   0.815981336697811   0.110776959972011   1.0000000
B2   B   0.766354367321800   0.957076886026309   0.110596214247056   1.0000000
B2   B   0.765009657949161   0.098774881411979   0.110719128432601   1.0000000
B2   B   0.763617106143468   0.240798865063243   0.110772952198592   1.0000000
B2   B   0.761053103649402   0.382927723371177   0.110699029143619   1.0000000
B2   B   0.756192897426990   0.525274117505362   0.110789151467186   1.0000000
B2   B   0.767474051153926   0.672155982268202   0.111088355885133   1.0000000
B2   B   0.769085986302620   0.816488815645388   0.110832770060530   1.0000000
N2   N   0.954738265242610   0.905649389905152   0.110523171554313   1.0000000
N2   N   0.954825048158641   0.049374580019543   0.110598160450871   1.0000000
N2   N   0.955243751749672   0.192929834774158   0.110788821336481   1.0000000
N2   N   0.954770331651596   0.335450090922618   0.110761348897732   1.0000000
N2   N   0.952652147289778   0.477220439855505   0.110615369572993   1.0000000
N2   N   0.952857895608163   0.618782101735324   0.110664761953049   1.0000000
N2   N   0.953786221060313   0.761514501483455   0.110690964582742   1.0000000
N2   N   0.095894341984661   0.902230080401430   0.110587650925724   1.0000000
N2   N   0.094808686009358   0.044524019449285   0.110763507932862   1.0000000
N2   N   0.095551017071453   0.188681788016137   0.110914074399086   1.0000000
N2   N   0.099089789946225   0.334563084954701   0.110883811209295   1.0000000
N2   N   0.098036638013398   0.476989173006008   0.110707634199611   1.0000000
N2   N   0.096978200546630   0.618560722733073   0.110641547482208   1.0000000
N2   N   0.096431531032644   0.760178014795138   0.110609618046832   1.0000000
N2   N   0.239246971422507   0.901766213270260   0.110754451422002   1.0000000
N2   N   0.237612442089010   0.042305683898593   0.110888420428803   1.0000000
N2   N   0.234674841466786   0.182116676695254   0.111002246633958   1.0000000
N2   N   0.237738831249569   0.327495425108624   0.110884556357230   1.0000000
N2   N   0.243588361515845   0.477581470805081   0.110892582687791   1.0000000
N2   N   0.241669173374747   0.619600997000442   0.110706166049141   1.0000000
N2   N   0.240365044285546   0.760804042681705   0.110687220670373   1.0000000
N2   N   0.383525942361730   0.903843541132478   0.110813876664365   1.0000000
N2   N   0.382178160916048   0.043319673567719   0.110956916478181   1.0000000
N2   N   0.379915545804682   0.180949337065732   0.110723083233656   1.0000000
N2   N   0.374560417619463   0.313584153946670   0.109351764112324   1.0000000
N2   N   0.387376562466546   0.625784357495184   0.110639910864965   1.0000000
N2   N   0.385069719053724   0.764189078577757   0.110680337355967   1.0000000
N2   N   0.527581561715096   0.906257200765356   0.110741775154722   1.0000000
N2   N   0.526282605727089   0.047444139617165   0.110874305289834   1.0000000
N2   N   0.524701033354458   0.188024094333218   0.110809281940361   1.0000000
N2   N   0.521279728948236   0.327468081665292   0.110137902988956   1.0000000
N2   N   0.524724546193972   0.537525218523525   0.110701190002843   1.0000000
N2   N   0.539834473459034   0.628540141227189   0.110833994571780   1.0000000
N2   N   0.529843686425203   0.764723114545060   0.110710343416445   1.0000000
N2   N   0.671392167725712   0.910282017815141   0.110634612869168   1.0000000
N2   N   0.669857064385723   0.051090313083024   0.110715335742848   1.0000000
N2   N   0.668344033755280   0.193011399971463   0.110781618357179   1.0000000
N2   N   0.665528554515303   0.335941375168870   0.110681463568516   1.0000000
N2   N   0.657006217522472   0.479747696457721   0.110718210983923   1.0000000
N2   N   0.674504739526666   0.629633457331396   0.111248823679394   1.0000000
N2   N   0.675584108258218   0.772765080715706   0.110979078525694   1.0000000
N2   N   0.814754002536680   0.910267174926321   0.110551979396139   1.0000000
N2   N   0.813119803464025   0.051692616568647   0.110616127361456   1.0000000
N2   N   0.812017325473067   0.193720882174580   0.110772409976548   1.0000000
N2   N   0.810120991694651   0.335875830758180   0.110708810456581   1.0000000
N2   N   0.806308815827729   0.477884625306534   0.110655099461948   1.0000000
N2   N   0.810058308810575   0.620420077923557   0.110919812970487   1.0000000
N2   N   0.814434415169515   0.766618134435972   0.110925216686059   1.0000000


