data_1
_audit_creation_method   'vasp2cif'
_cell_length_a    17.52789999999977
_cell_length_b    17.52789999999977
_cell_length_c    15.0
_cell_angle_alpha    90.0
_cell_angle_beta    90.0
_cell_angle_gamma    119.99999999999916

_symmetry_space_group_name_H-M    'P 1'
loop_
_atom_site_label
_atom_site_type_symbol
_atom_site_fract_x
_atom_site_fract_y
_atom_site_fract_z
_atom_site_occupancy
B2   B   0.903037051676682   0.950039525324897   0.106606500690862   1.0000000
B2   B   0.903940819306716   0.093086010443056   0.108835483015888   1.0000000
B2   B   0.904523257959479   0.236091843143484   0.108956754466600   1.0000000
B2   B   0.904863096672532   0.379200017013165   0.107759475115590   1.0000000
B2   B   0.905648642828524   0.522681998349583   0.105991558235441   1.0000000
B2   B   0.905421734819149   0.666013080588717   0.104155700053023   1.0000000
B2   B   0.904254030959122   0.808611886074620   0.103533873121624   1.0000000
B2   B   0.047652125579682   0.952725753812514   0.105855668155490   1.0000000
B2   B   0.048230596282503   0.095704380598560   0.106983013811392   1.0000000
B2   B   0.048092373338771   0.237695796643066   0.107521524240986   1.0000000
B2   B   0.047614769417074   0.379959605368733   0.107028288976317   1.0000000
B2   B   0.047205192607205   0.523026023555249   0.106971400008631   1.0000000
B2   B   0.047236576491081   0.666529052481240   0.106851480941966   1.0000000
B2   B   0.047495604236934   0.809780956683354   0.105779031013408   1.0000000
B2   B   0.190677116070173   0.953423107170849   0.107830288125199   1.0000000
B2   B   0.191595320714383   0.097078170473735   0.107208244046983   1.0000000
B2   B   0.193864607083772   0.241908454689667   0.107182124319939   1.0000000
B2   B   0.191620478749568   0.382028486951023   0.106024603367085   1.0000000
B2   B   0.189278829379220   0.523814933594913   0.105642144176856   1.0000000
B2   B   0.188615844079132   0.666837311391148   0.107745049328288   1.0000000
B2   B   0.189869408501934   0.810111946940098   0.108801464404335   1.0000000
B2   B   0.333132671376644   0.953016141679591   0.109687682571999   1.0000000
B2   B   0.334064215419237   0.096642642778213   0.110090590946393   1.0000000
B2   B   0.335466844943706   0.241234640041393   0.111481334333143   1.0000000
B2   B   0.341418138554911   0.391068405973890   0.110806637315883   1.0000000
B2   B   0.332026698042706   0.525998090738088   0.106903551644324   1.0000000
B2   B   0.329567934990599   0.667672708061043   0.107551666778707   1.0000000
B2   B   0.332004547018378   0.810008859999647   0.110100587705718   1.0000000
B2   B   0.475444409834389   0.950974337545553   0.110698328786035   1.0000000
B2   B   0.476310948573579   0.094655376957565   0.110860840111441   1.0000000
B2   B   0.477194814113516   0.238293617663945   0.118079763321677   1.0000000
B2   B   0.477043107758552   0.380078317263267   0.135670992314024   1.0000000
B2   B   0.488976698434400   0.574934197370031   0.128879877477955   1.0000000
B2   B   0.468169994057246   0.661075262320149   0.122505862363842   1.0000000
B2   B   0.473875091258144   0.806877569170808   0.114188451584738   1.0000000
B2   B   0.617469898503888   0.948674500179229   0.112109159866286   1.0000000
B2   B   0.618612265789919   0.092754571084838   0.110534445461540   1.0000000
B2   B   0.619400593605965   0.236117119503109   0.113331926756884   1.0000000
B2   B   0.620711717595011   0.378906581530842   0.123018267192396   1.0000000
B2   B   0.630006704000509   0.525161060818929   0.132310228061893   1.0000000
B2   B   0.612320476944217   0.654576170088289   0.105344074621004   1.0000000
B2   B   0.614717446048074   0.803054834751461   0.113771311866118   1.0000000
B2   B   0.759524276171669   0.948213139912790   0.109877415829155   1.0000000
B2   B   0.761002474173945   0.092213749421277   0.110364352539948   1.0000000
B2   B   0.761803354466633   0.235669541785779   0.109811260205540   1.0000000
B2   B   0.762628611207321   0.378931248796614   0.110420154955511   1.0000000
B2   B   0.764670923188895   0.522266717338951   0.110109647468231   1.0000000
B2   B   0.763200765081269   0.665073041408193   0.103990038088595   1.0000000
B2   B   0.757428605867806   0.803701573115869   0.106264301908779   1.0000000
N2   N   0.951916831803243   0.903874067254691   0.104886027988618   1.0000000
N2   N   0.951956961838545   0.046056468786556   0.107549110898253   1.0000000
N2   N   0.952297284723929   0.188726375078134   0.108748690763787   1.0000000
N2   N   0.952253413940923   0.331532173825738   0.108054020372037   1.0000000
N2   N   0.952349118219587   0.474640999653994   0.106779899877888   1.0000000
N2   N   0.952408740615116   0.618145938227649   0.105205583900299   1.0000000
N2   N   0.952200430578580   0.761387479158651   0.103526049956176   1.0000000
N2   N   0.095280563342483   0.905250803416994   0.106466981090561   1.0000000
N2   N   0.095947259208665   0.048352270793254   0.106496328543773   1.0000000
N2   N   0.097256295922737   0.191782790119909   0.107081440746939   1.0000000
N2   N   0.095874388986523   0.332986011936726   0.106675812957848   1.0000000
N2   N   0.094375264443800   0.475272495150644   0.106518010686097   1.0000000
N2   N   0.093913274555381   0.618482405410546   0.107648215894946   1.0000000
N2   N   0.094723661031106   0.762015864758445   0.107479876754038   1.0000000
N2   N   0.237876559923911   0.905515097278824   0.109093437542469   1.0000000
N2   N   0.238768323191903   0.049007701497066   0.107932233084685   1.0000000
N2   N   0.240174197667774   0.193001672755622   0.107576025181070   1.0000000
N2   N   0.243434002925455   0.338589405279449   0.107105526682623   1.0000000
N2   N   0.237201671367901   0.476693109116124   0.105118537629109   1.0000000
N2   N   0.235155255325269   0.619025854141510   0.105966662364759   1.0000000
N2   N   0.236836240039952   0.762223646059579   0.109186042906775   1.0000000
N2   N   0.380268977476838   0.905006734162761   0.110346522628274   1.0000000
N2   N   0.381135080685713   0.048320519380878   0.109869487715028   1.0000000
N2   N   0.382184484553755   0.192302314845420   0.113356566932719   1.0000000
N2   N   0.384533596432810   0.337764922833390   0.115854516615836   1.0000000
N2   N   0.389519908688771   0.488971875696292   0.109121215050288   1.0000000
N2   N   0.375505691284582   0.620234446910135   0.108506343145624   1.0000000
N2   N   0.378894574682985   0.762198542425325   0.110766936655013   1.0000000
N2   N   0.522339873819651   0.902309523225683   0.112198147179593   1.0000000
N2   N   0.523429762844320   0.046294139438092   0.110141927442763   1.0000000
N2   N   0.524231639606578   0.189952833065938   0.113648511069266   1.0000000
N2   N   0.525440596584411   0.333603534365105   0.128154370306623   1.0000000
N2   N   0.519689961986820   0.756860533643976   0.119611580810939   1.0000000
N2   N   0.663910974636621   0.899381915662440   0.112129589826778   1.0000000
N2   N   0.665660590439747   0.044369074034231   0.110950630148623   1.0000000
N2   N   0.666535245669758   0.188130178654380   0.110629401660616   1.0000000
N2   N   0.667435907382540   0.331259342111586   0.115272874377600   1.0000000
N2   N   0.670426282416864   0.473759434408768   0.121168668730747   1.0000000
N2   N   0.667873794783803   0.615675200360133   0.106067190688061   1.0000000
N2   N   0.659683119236410   0.752016016492901   0.108002357162094   1.0000000
N2   N   0.806560644102425   0.900089882834140   0.107696570831063   1.0000000
N2   N   0.808187009672853   0.044146747581600   0.109879876935145   1.0000000
N2   N   0.809077792512922   0.187790192123365   0.109769106058139   1.0000000
N2   N   0.809638364105629   0.331055399106149   0.108808364980761   1.0000000
N2   N   0.810876688581128   0.474232065022908   0.107403435346412   1.0000000
N2   N   0.810511021444053   0.617443930907705   0.105282587448526   1.0000000
N2   N   0.808508598756707   0.759666894803679   0.103102779659258   1.0000000
Si2   Si   0.523081741301846   0.501444393796925   0.204083656755785   1.0000000


