data_1
_audit_creation_method   'vasp2cif'
_cell_length_a    14.93631414619966
_cell_length_b    14.936314146199727
_cell_length_c    13.341276283792837
_cell_angle_alpha    90.0
_cell_angle_beta    90.0
_cell_angle_gamma    119.99999999999984

_symmetry_space_group_name_H-M    'P 1'
loop_
_atom_site_label
_atom_site_type_symbol
_atom_site_fract_x
_atom_site_fract_y
_atom_site_fract_z
_atom_site_occupancy
Ge2   Ge   0.423308880970397   0.378321107151905   0.375000000000000   1.0000000
Ge2   Ge   0.575040361832893   0.454186847583111   0.375000000000000   1.0000000
N2   N   0.110882022733412   0.055453922809984   0.125295449968965   1.0000000
N2   N   0.610968111330716   0.555716280061386   0.119615894067496   1.0000000
N2   N   0.444186676204507   0.055417282211222   0.124687469364296   1.0000000
N2   N   0.944122846289774   0.555391402908339   0.124881720454162   1.0000000
N2   N   0.777561806066304   0.055447569699794   0.125053482303294   1.0000000
N2   N   0.110783437295658   0.722058385314538   0.624672935897111   1.0000000
N2   N   0.444186676204507   0.722102727326538   0.625312530635717   1.0000000
N2   N   0.277589110174512   0.222108402684807   0.626220627614649   1.0000000
N2   N   0.777549192588383   0.722191575070858   0.626345784490181   1.0000000
N2   N   0.610908706568619   0.222023250694372   0.626558011992923   1.0000000
N2   N   0.944242846674402   0.222097002461018   0.624788516574887   1.0000000
N2   N   0.277499210020330   0.722092711220217   0.125233895891773   1.0000000
N2   N   0.110922533833641   0.222127933583509   0.125250070721772   1.0000000
N2   N   0.444222409133581   0.222102917060258   0.122782724138853   1.0000000
N2   N   0.610908706568574   0.722218789207485   0.123441988007088   1.0000000
N2   N   0.944122846289774   0.722064776714614   0.124881720454162   1.0000000
N2   N   0.777575282212125   0.222050623052865   0.124603724930900   1.0000000
N2   N   0.110814479735679   0.888746296835865   0.624729207439036   1.0000000
N2   N   0.444174081007771   0.888753707170628   0.624955925998006   1.0000000
N2   N   0.277589110174512   0.388814040823086   0.626220627614649   1.0000000
N2   N   0.610968111330716   0.388585164602586   0.630384105932592   1.0000000
N2   N   0.777575282212125   0.888857992492541   0.625396275069122   1.0000000
N2   N   0.944206812977865   0.388723312406825   0.624994826161138   1.0000000
N2   N   0.110882022733412   0.388761433256779   0.125295449968965   1.0000000
N2   N   0.277499210020330   0.888739832133569   0.125233895891773   1.0000000
N2   N   0.610877266117457   0.888807792913095   0.124776582879786   1.0000000
N2   N   0.444223839867152   0.388778586600163   0.118417142837172   1.0000000
N2   N   0.944206812977865   0.888816833904363   0.125005173838921   1.0000000
N2   N   0.777549192588383   0.388690950850887   0.123654215509876   1.0000000
N2   N   0.277539507163303   0.555468478052791   0.625134186190969   1.0000000
N2   N   0.110882022733412   0.055453922809984   0.624704550031083   1.0000000
N2   N   0.610968111330716   0.555716280061386   0.630384105932592   1.0000000
N2   N   0.444186676204507   0.055417282211222   0.625312530635717   1.0000000
N2   N   0.944122846289774   0.555391402908339   0.625118279545713   1.0000000
N2   N   0.110814479735679   0.555401516233338   0.125270792560867   1.0000000
N2   N   0.777561806066304   0.055447569699794   0.624946517696679   1.0000000
N2   N   0.277539507163303   0.055404362443746   0.124865813809021   1.0000000
N2   N   0.444222409133581   0.555452825406483   0.122782724138853   1.0000000
N2   N   0.777431472364116   0.555382402848644   0.123253104464254   1.0000000
N2   N   0.610877266117457   0.055402806537650   0.124776582879786   1.0000000
N2   N   0.444222409133581   0.555452825406483   0.627217275861249   1.0000000
N2   N   0.944242846674402   0.055479177546730   0.125211483425070   1.0000000
N2   N   0.277499210020330   0.722092711220217   0.624766104108244   1.0000000
N2   N   0.110922533833641   0.222127933583509   0.624749929278142   1.0000000
N2   N   0.444222409133581   0.222102917060258   0.627217275861249   1.0000000
N2   N   0.610908706568574   0.722218789207485   0.626558011992923   1.0000000
N2   N   0.944122846289774   0.722064776714614   0.625118279545713   1.0000000
N2   N   0.777575282212125   0.222050623052865   0.625396275069122   1.0000000
N2   N   0.110783437295658   0.722058385314538   0.125327064102878   1.0000000
N2   N   0.444186676204507   0.722102727326538   0.124687469364296   1.0000000
N2   N   0.277589110174512   0.222108402684807   0.123779372385153   1.0000000
N2   N   0.777549192588383   0.722191575070858   0.123654215509881   1.0000000
N2   N   0.610908706568574   0.222023250694372   0.123441988007088   1.0000000
N2   N   0.944242846674402   0.222097002461018   0.125211483425070   1.0000000
N2   N   0.110882022733412   0.388761433256779   0.624704550031083   1.0000000
N2   N   0.277499210020330   0.888739832133569   0.624766104108244   1.0000000
N2   N   0.610877266117457   0.888807792913095   0.625223417120218   1.0000000
N2   N   0.444223839867152   0.388778586600163   0.631582857162945   1.0000000
N2   N   0.944206812977865   0.888816833904363   0.624994826161138   1.0000000
N2   N   0.110814479735679   0.888746296835865   0.125270792560867   1.0000000
N2   N   0.777549192588383   0.388690950850887   0.626345784490181   1.0000000
N2   N   0.444174081007771   0.888753707170628   0.125044074002006   1.0000000
N2   N   0.277589110174512   0.388814040823086   0.123779372385154   1.0000000
N2   N   0.277539507163303   0.555468478052791   0.124865813809021   1.0000000
N2   N   0.610968111330716   0.388585164602586   0.119615894067496   1.0000000
N2   N   0.777575282212125   0.888857992492541   0.124603724930900   1.0000000
N2   N   0.944206812977865   0.388723312406825   0.125005173838921   1.0000000
N2   N   0.110814479735679   0.555401516233338   0.624729207439036   1.0000000
N2   N   0.277539507163303   0.055404362443746   0.625134186190969   1.0000000
N2   N   0.777431472364116   0.555382402848644   0.626746895535627   1.0000000
N2   N   0.610877266117457   0.055402806537650   0.625223417120218   1.0000000
N2   N   0.944242846674402   0.055479177546730   0.624788516574887   1.0000000
N2   N   0.055161027965579   0.110742205319701   0.375000000000000   1.0000000
N2   N   0.555861815679795   0.624644302250575   0.375000000000000   1.0000000
N2   N   0.386444171730416   0.101336867091573   0.375000000000000   1.0000000
N2   N   0.891374887323815   0.612354110328521   0.375000000000000   1.0000000
N2   N   0.723583183971062   0.110251869105039   0.375000000000000   1.0000000
N2   N   0.055901551583993   0.777945135531272   0.875000000000000   1.0000000
N2   N   0.389223470331125   0.777950570432855   0.875000000000000   1.0000000
N2   N   0.222566857373913   0.277950095353589   0.875000000000000   1.0000000
N2   N   0.722568484433367   0.777927757075275   0.875000000000000   1.0000000
N2   N   0.555870713998589   0.277914035375877   0.875000000000000   1.0000000
N2   N   0.889240644868871   0.277959566801069   0.875000000000000   1.0000000
N2   N   0.221053393155835   0.777193363244567   0.375000000000000   1.0000000
N2   N   0.055161027965577   0.277752155979298   0.375000000000000   1.0000000
N2   N   0.372575493755075   0.247697062748860   0.375000000000000   1.0000000
N2   N   0.555657862921992   0.783990611129582   0.375000000000000   1.0000000
N2   N   0.893931405770339   0.782493603152067   0.375000000000000   1.0000000
N2   N   0.724946904879598   0.274904608950268   0.375000000000000   1.0000000
N2   N   0.055899610951150   0.944622245698311   0.875000000000000   1.0000000
N2   N   0.389223470331125   0.944606233231714   0.875000000000000   1.0000000
N2   N   0.222565853991169   0.444624451823183   0.875000000000000   1.0000000
N2   N   0.555909787757459   0.444621560545394   0.875000000000000   1.0000000
N2   N   0.722570822325641   0.944618421138372   0.875000000000000   1.0000000
N2   N   0.889249826242678   0.444626878568730   0.875000000000000   1.0000000
N2   N   0.054552631413369   0.445305959673414   0.375000000000000   1.0000000
N2   N   0.220328413152784   0.940688888515970   0.375000000000000   1.0000000
N2   N   0.555657089732365   0.944495211532786   0.375000000000000   1.0000000
N2   N   0.372575493755075   0.458211764339499   0.375000000000000   1.0000000
N2   N   0.890402682582532   0.946432850641727   0.375000000000000   1.0000000
N2   N   0.734579283008700   0.443325269793742   0.375000000000000   1.0000000
N2   N   0.222561109659923   0.611294095007841   0.875000000000000   1.0000000
N2   N   0.055897133748658   0.111271163728300   0.875000000000000   1.0000000
N2   N   0.555870713998589   0.611290011956061   0.875000000000000   1.0000000
N2   N   0.389218430725213   0.111246878619065   0.875000000000000   1.0000000
N2   N   0.889261961430258   0.611297647381783   0.875000000000000   1.0000000
N2   N   0.055688609410960   0.611742491692009   0.375000000000000   1.0000000
N2   N   0.722570822325641   0.111285734520754   0.875000000000000   1.0000000
N2   N   0.214611990839450   0.101200662890563   0.375000000000000   1.0000000
N2   N   0.386444171730416   0.618440637972336   0.375000000000000   1.0000000
N2   N   0.734579283008700   0.624587346548276   0.375000000000000   1.0000000
N2   N   0.555657862921992   0.105000585125900   0.375000000000000   1.0000000
N2   N   0.389218430725213   0.611304885439585   0.875000000000000   1.0000000
N2   N   0.889881784503030   0.111607558918254   0.375000000000000   1.0000000
N2   N   0.222554777417963   0.777944055375662   0.875000000000000   1.0000000
N2   N   0.055897133748658   0.277959303353676   0.875000000000000   1.0000000
N2   N   0.389219428362938   0.277952545273597   0.875000000000000   1.0000000
N2   N   0.555892324518266   0.777957507703320   0.875000000000000   1.0000000
N2   N   0.889249826242617   0.777956281007218   0.875000000000000   1.0000000
N2   N   0.722568484433367   0.277974060691544   0.875000000000000   1.0000000
N2   N   0.055688609410960   0.777279451052230   0.375000000000000   1.0000000
N2   N   0.387572979235748   0.779778461107008   0.375000000000000   1.0000000
N2   N   0.220935686846722   0.277134510090069   0.375000000000000   1.0000000
N2   N   0.724946904879598   0.783375629262621   0.375000000000000   1.0000000
N2   N   0.555861815679795   0.264550846762701   0.375000000000000   1.0000000
N2   N   0.890402682582532   0.277303165274154   0.375000000000000   1.0000000
N2   N   0.055899610951150   0.444610698586187   0.875000000000000   1.0000000
N2   N   0.222561109659923   0.944600347985580   0.875000000000000   1.0000000
N2   N   0.555902558068714   0.944617945700931   0.875000000000000   1.0000000
N2   N   0.389219428362938   0.444600216422572   0.875000000000000   1.0000000
N2   N   0.889240644868871   0.944614411401130   0.875000000000000   1.0000000
N2   N   0.054552631413370   0.942580005073323   0.375000000000000   1.0000000
N2   N   0.722594895641657   0.444643544874453   0.875000000000000   1.0000000
N2   N   0.387572979235747   0.941127851462060   0.375000000000000   1.0000000
N2   N   0.214611990839450   0.446744661282214   0.375000000000000   1.0000000
N2   N   0.220328413152784   0.612972857969977   0.375000000000000   1.0000000
N2   N   0.723583183971062   0.946664648199348   0.375000000000000   1.0000000
N2   N   0.893931405770339   0.444771135951654   0.375000000000000   1.0000000
N2   N   0.055901551583993   0.611289749386302   0.875000000000000   1.0000000
N2   N   0.222565853991169   0.111274735501361   0.875000000000000   1.0000000
N2   N   0.722594895641657   0.611284684100630   0.875000000000000   1.0000000
N2   N   0.555892324518266   0.111268150148340   0.875000000000000   1.0000000
N2   N   0.889238708496581   0.111286020914925   0.875000000000000   1.0000000
B2   B   0.106524620056461   0.051201430128407   0.375000000000000   1.0000000
B2   B   0.626360953436319   0.587475360457157   0.375000000000000   1.0000000
B2   B   0.444221213134045   0.050021556328712   0.375000000000000   1.0000000
B2   B   0.945833061718254   0.555791482682280   0.375000000000000   1.0000000
B2   B   0.779382173710229   0.056357753521785   0.375000000000000   1.0000000
B2   B   0.111394781005798   0.722364057169528   0.875000000000000   1.0000000
B2   B   0.444733907965382   0.722358580229907   0.875000000000000   1.0000000
B2   B   0.278226965266266   0.222501462182469   0.875000000000000   1.0000000
B2   B   0.778044634846605   0.722308596991550   0.875000000000000   1.0000000
B2   B   0.611482280246247   0.222493140387026   0.875000000000000   1.0000000
B2   B   0.944842887205435   0.222480027578159   0.875000000000000   1.0000000
B2   B   0.276889219468708   0.723256720687339   0.375000000000000   1.0000000
B2   B   0.110083112225177   0.221708222779266   0.375000000000000   1.0000000
B2   B   0.442749259526479   0.210169241726830   0.375000000000000   1.0000000
B2   B   0.613092998008881   0.732500364088184   0.375000000000000   1.0000000
B2   B   0.945833061718254   0.723374912369599   0.375000000000000   1.0000000
B2   B   0.779862447130325   0.220603215177242   0.375000000000000   1.0000000
B2   B   0.111468386966314   0.889059264175708   0.875000000000000   1.0000000
B2   B   0.444793236774486   0.889063285053815   0.875000000000000   1.0000000
B2   B   0.278226965266266   0.389058836417111   0.875000000000000   1.0000000
B2   B   0.611481811968515   0.389061784307066   0.875000000000000   1.0000000
B2   B   0.778124096053168   0.889028827373006   0.875000000000000   1.0000000
B2   B   0.944838252775055   0.389056652162220   0.875000000000000   1.0000000
B2   B   0.106524620056472   0.388656523261362   0.375000000000000   1.0000000
B2   B   0.276889219468708   0.886965832114725   0.375000000000000   1.0000000
B2   B   0.612747653615092   0.892594486183235   0.375000000000000   1.0000000
B2   B   0.945943584038470   0.891071639939440   0.375000000000000   1.0000000
B2   B   0.785501094593649   0.386923567503548   0.375000000000000   1.0000000
B2   B   0.278191059910874   0.555813006717437   0.875000000000000   1.0000000
B2   B   0.111427863054866   0.055705717648474   0.875000000000000   1.0000000
B2   B   0.611481811968515   0.555753360994816   0.875000000000000   1.0000000
B2   B   0.444733907965382   0.055708661068962   0.875000000000000   1.0000000
B2   B   0.944825605930155   0.555806467813977   0.875000000000000   1.0000000
B2   B   0.110026109868374   0.556129384446773   0.375000000000000   1.0000000
B2   B   0.778074484657833   0.055703908995585   0.875000000000000   1.0000000
B2   B   0.275158537305552   0.049982712227534   0.375000000000000   1.0000000
B2   B   0.442749259526479   0.565913351133033   0.375000000000000   1.0000000
B2   B   0.781354991262164   0.557344162297804   0.375000000000000   1.0000000
B2   B   0.612747653615092   0.053486500765156   0.375000000000000   1.0000000
B2   B   0.444816159192469   0.555727547209347   0.875000000000000   1.0000000
B2   B   0.945113286137171   0.056479505614456   0.375000000000000   1.0000000
B2   B   0.278174019327652   0.722378854909908   0.875000000000000   1.0000000
B2   B   0.111494323470986   0.222413828402146   0.875000000000000   1.0000000
B2   B   0.444816159192469   0.222421945316376   0.875000000000000   1.0000000
B2   B   0.611482280246247   0.722322473192397   0.875000000000000   1.0000000
B2   B   0.944825605930155   0.722352471449403   0.875000000000000   1.0000000
B2   B   0.778124096053168   0.222428602013474   0.875000000000000   1.0000000
B2   B   0.110680060651249   0.722006696992424   0.375000000000000   1.0000000
B2   B   0.444221213134045   0.727532990138765   0.375000000000000   1.0000000
B2   B   0.266870476877082   0.209099015558145   0.375000000000000   1.0000000
B2   B   0.785501094593649   0.731910860423278   0.375000000000000   1.0000000
B2   B   0.613092998008881   0.213925967254079   0.375000000000000   1.0000000
B2   B   0.945113286137171   0.221967113856149   0.375000000000000   1.0000000
B2   B   0.111427863054866   0.389055478739805   0.875000000000000   1.0000000
B2   B   0.278174019327652   0.889128497750830   0.875000000000000   1.0000000
B2   B   0.611495202110788   0.889114009964932   0.875000000000000   1.0000000
B2   B   0.444808549767118   0.389070941550251   0.875000000000000   1.0000000
B2   B   0.944838252775055   0.889114933946236   0.875000000000000   1.0000000
B2   B   0.110026109868374   0.887230058754822   0.375000000000000   1.0000000
B2   B   0.778044634846605   0.389069371188449   0.875000000000000   1.0000000
B2   B   0.444559608030395   0.888946470681831   0.375000000000000   1.0000000
B2   B   0.266870476877082   0.391104794652241   0.375000000000000   1.0000000
B2   B   0.275158537305552   0.558509158411315   0.375000000000000   1.0000000
B2   B   0.626360953436319   0.372218926312511   0.375000000000000   1.0000000
B2   B   0.779862447130325   0.892592565286254   0.375000000000000   1.0000000
B2   B   0.945943584038470   0.388205277432349   0.375000000000000   1.0000000
B2   B   0.111468386966314   0.555742456123912   0.875000000000000   1.0000000
B2   B   0.278191059910874   0.055711386526729   0.875000000000000   1.0000000
B2   B   0.778099671573435   0.555716502453422   0.875000000000000   1.0000000
B2   B   0.611495202110788   0.055714525479060   0.875000000000000   1.0000000
B2   B   0.944842887205435   0.055696192960702   0.875000000000000   1.0000000
B2   B   0.055306993720417   0.110956804686180   0.125342096171539   1.0000000
B2   B   0.555526836010904   0.610976013024303   0.122005239097127   1.0000000
B2   B   0.388672398830484   0.111080467405072   0.124323203311151   1.0000000
B2   B   0.888473741310065   0.610903537321639   0.124514064523313   1.0000000
B2   B   0.721936488405976   0.110910841184066   0.124891819744832   1.0000000
B2   B   0.055148297284028   0.777547827656133   0.624761085201235   1.0000000
B2   B   0.388583585151401   0.777551847639487   0.624917692933000   1.0000000
B2   B   0.222192735025127   0.277763034179207   0.625593107570410   1.0000000
B2   B   0.721907718712588   0.777617099349258   0.626049627488426   1.0000000
B2   B   0.555526836010904   0.277884156319974   0.627994760902839   1.0000000
B2   B   0.888705794396206   0.277649560721268   0.624982811871216   1.0000000
B2   B   0.221954097853744   0.777643715593549   0.125326108415273   1.0000000
B2   B   0.055306993720417   0.277683522367587   0.125342096171539   1.0000000
B2   B   0.388819190191286   0.277917590060658   0.121711360311208   1.0000000
B2   B   0.555360638271882   0.777644399644689   0.124422947409386   1.0000000
B2   B   0.888553862585717   0.777642946134983   0.124653692110526   1.0000000
B2   B   0.721907718712588   0.277623952696598   0.123950372511562   1.0000000
B2   B   0.055243782440500   0.944359218158035   0.624719020360443   1.0000000
B2   B   0.388583585151401   0.944365070845291   0.624917692933000   1.0000000
B2   B   0.222092646825450   0.444332716296804   0.625214788886008   1.0000000
B2   B   0.555476331464449   0.444404832398889   0.628471436612281   1.0000000
B2   B   0.721936488405976   0.944358980555256   0.625108180255132   1.0000000
B2   B   0.888553862585717   0.444244249783989   0.625346307889529   1.0000000
B2   B   0.055243782440500   0.444217897615874   0.125280979639537   1.0000000
B2   B   0.222046142457399   0.944394941900682   0.125217342084719   1.0000000
B2   B   0.555366062099115   0.944349697716257   0.124955367457598   1.0000000
B2   B   0.388819190191286   0.444234933463840   0.121711360311208   1.0000000
B2   B   0.888705794396206   0.944389567008293   0.125017188128678   1.0000000
B2   B   0.721711583101057   0.444107282825313   0.122375011931039   1.0000000
B2   B   0.222046142457399   0.610984533890075   0.624782657915079   1.0000000
B2   B   0.055306993720417   0.110956804686175   0.624657903828382   1.0000000
B2   B   0.555526836010904   0.610976013024303   0.627994760902839   1.0000000
B2   B   0.388672398830484   0.111080467405072   0.625676796688830   1.0000000
B2   B   0.888473741310059   0.610903537321639   0.625485935476699   1.0000000
B2   B   0.055148297284028   0.610933802961182   0.125238914798805   1.0000000
B2   B   0.721936488405976   0.110910841184066   0.625108180255132   1.0000000
B2   B   0.222092646825428   0.111093263861868   0.124785211114033   1.0000000
B2   B   0.388672398830484   0.610925264758820   0.124323203311151   1.0000000
B2   B   0.721711583101057   0.610937633608929   0.122375011931039   1.0000000
B2   B   0.555360638271882   0.111049571960636   0.124422947409386   1.0000000
B2   B   0.388672398830484   0.610925264758820   0.625676796688830   1.0000000
B2   B   0.888692715738036   0.111013024535733   0.125228949099052   1.0000000
B2   B   0.221954097853760   0.777643715593549   0.624673891584911   1.0000000
B2   B   0.055306993720417   0.277683522367587   0.624657903828382   1.0000000
B2   B   0.388819190191286   0.277917590060658   0.628288639688813   1.0000000
B2   B   0.555360638271882   0.777644399644689   0.625577052590631   1.0000000
B2   B   0.888553862585570   0.777642946134983   0.625346307889529   1.0000000
B2   B   0.721907718712588   0.277623952696598   0.626049627488426   1.0000000
B2   B   0.055148297284028   0.777547827656133   0.125238914798805   1.0000000
B2   B   0.388583585151401   0.777551847639487   0.125082307067092   1.0000000
B2   B   0.222192735025127   0.277763034179207   0.124406892429454   1.0000000
B2   B   0.721907718712588   0.777617099349258   0.123950372511562   1.0000000
B2   B   0.555526836010904   0.277884156319974   0.122005239097127   1.0000000
B2   B   0.888705794396206   0.277649560721268   0.125017188128678   1.0000000
B2   B   0.055243782440500   0.444217897615874   0.624719020360443   1.0000000
B2   B   0.222046142457399   0.944394941900682   0.624782657915079   1.0000000
B2   B   0.555366062099115   0.944349697716257   0.625044632542629   1.0000000
B2   B   0.388819190191286   0.444234933463840   0.628288639688813   1.0000000
B2   B   0.888705794396206   0.944389567008293   0.624982811871216   1.0000000
B2   B   0.055243782440500   0.944359218158035   0.125280979639537   1.0000000
B2   B   0.721711583101057   0.444107282825313   0.627624988068928   1.0000000
B2   B   0.388583585151401   0.944365070845291   0.125082307067092   1.0000000
B2   B   0.222092646825450   0.444332716296786   0.124785211114033   1.0000000
B2   B   0.222046142457399   0.610984533890075   0.125217342084719   1.0000000
B2   B   0.555476331464449   0.444404832398889   0.121528563387762   1.0000000
B2   B   0.721936488405976   0.944358980555256   0.124891819744832   1.0000000
B2   B   0.888553862585570   0.444244249783989   0.124653692110526   1.0000000
B2   B   0.055148297284028   0.610933802961182   0.624761085201235   1.0000000
B2   B   0.222092646825428   0.111093263861868   0.625214788886008   1.0000000
B2   B   0.721711583101057   0.610937633608929   0.627624988068928   1.0000000
B2   B   0.555360638271882   0.111049571960636   0.625577052590631   1.0000000
B2   B   0.888692715738036   0.111013024535733   0.624771050900902   1.0000000


