data_1
_audit_creation_method   'vasp2cif'
_cell_length_a    14.93631414619966
_cell_length_b    14.936314146199727
_cell_length_c    13.341276283792837
_cell_angle_alpha    90.0
_cell_angle_beta    90.0
_cell_angle_gamma    119.99999999999984

_symmetry_space_group_name_H-M    'P 1'
loop_
_atom_site_label
_atom_site_type_symbol
_atom_site_fract_x
_atom_site_fract_y
_atom_site_fract_z
_atom_site_occupancy
P2   P   0.555555555555557   0.444444444444443   0.375000000000000   1.0000000
N2   N   0.111108119654478   0.055543550508151   0.125097462539654   1.0000000
N2   N   0.611125254020612   0.555583841374552   0.125292265630021   1.0000000
N2   N   0.444434486456764   0.055544255321531   0.125167093732616   1.0000000
N2   N   0.944455744678469   0.555565513543237   0.125167093732616   1.0000000
N2   N   0.777773602737379   0.055553468035358   0.125077916696390   1.0000000
N2   N   0.111117290002158   0.722225311667743   0.624892959006021   1.0000000
N2   N   0.444434486456764   0.722223564468568   0.624832906267385   1.0000000
N2   N   0.277765791995622   0.222205719871651   0.624829387225408   1.0000000
N2   N   0.777794280128349   0.722234208004379   0.624829387225408   1.0000000
N2   N   0.611106594542701   0.222205719871651   0.624829387225408   1.0000000
N2   N   0.944446531964643   0.222226397262621   0.624922083303610   1.0000000
N2   N   0.277774688332257   0.722225311667743   0.125107040993979   1.0000000
N2   N   0.111109078168011   0.222221205750670   0.125093694014693   1.0000000
N2   N   0.444445753240856   0.222224839815047   0.125349186831545   1.0000000
N2   N   0.611106594542701   0.722234208004379   0.125170612774592   1.0000000
N2   N   0.944455744678469   0.722223564468568   0.125167093732616   1.0000000
N2   N   0.777778794249330   0.222221205750670   0.125093694014693   1.0000000
N2   N   0.111116597139519   0.888883402860481   0.624888459586057   1.0000000
N2   N   0.444433472387634   0.888883402860481   0.624888459586057   1.0000000
N2   N   0.277765791995622   0.388893405457299   0.624829387225408   1.0000000
N2   N   0.611125254020612   0.388874745979388   0.624707734369979   1.0000000
N2   N   0.777778794249330   0.888890921831989   0.624906305985307   1.0000000
N2   N   0.944456449491849   0.388897902479656   0.624902537460346   1.0000000
N2   N   0.111108119654478   0.388897902479656   0.125097462539654   1.0000000
N2   N   0.277774688332257   0.888882709997842   0.125107040993979   1.0000000
N2   N   0.611102097520344   0.888891880345522   0.125097462539654   1.0000000
N2   N   0.444416158625448   0.388874745979388   0.125292265630021   1.0000000
N2   N   0.944456449491849   0.888891880345522   0.125097462539654   1.0000000
N2   N   0.777794280128349   0.388893405457299   0.125170612774592   1.0000000
N2   N   0.277776435531432   0.555565513543237   0.624832906267385   1.0000000
N2   N   0.111108119654478   0.055543550508151   0.624902537460346   1.0000000
N2   N   0.611125254020612   0.555583841374552   0.624707734369979   1.0000000
N2   N   0.444434486456764   0.055544255321531   0.624832906267385   1.0000000
N2   N   0.944455744678469   0.555565513543237   0.624832906267385   1.0000000
N2   N   0.111116597139519   0.555566527612366   0.125111540413942   1.0000000
N2   N   0.777773602737379   0.055553468035358   0.624922083303610   1.0000000
N2   N   0.277776435531432   0.055544255321531   0.125167093732616   1.0000000
N2   N   0.444445753240856   0.555554246759144   0.125349186831545   1.0000000
N2   N   0.777775160184953   0.555554246759144   0.125349186831545   1.0000000
N2   N   0.611102097520344   0.055543550508151   0.125097462539654   1.0000000
N2   N   0.444445753240856   0.555554246759144   0.624650813168455   1.0000000
N2   N   0.944446531964643   0.055553468035358   0.125077916696390   1.0000000
N2   N   0.277774688332257   0.722225311667743   0.624892959006021   1.0000000
N2   N   0.111109078168011   0.222221205750670   0.624906305985307   1.0000000
N2   N   0.444445753240856   0.222224839815047   0.624650813168455   1.0000000
N2   N   0.611106594542701   0.722234208004379   0.624829387225408   1.0000000
N2   N   0.944455744678469   0.722223564468568   0.624832906267385   1.0000000
N2   N   0.777778794249330   0.222221205750670   0.624906305985307   1.0000000
N2   N   0.111117290002158   0.722225311667743   0.125107040993979   1.0000000
N2   N   0.444434486456764   0.722223564468568   0.125167093732616   1.0000000
N2   N   0.277765791995622   0.222205719871651   0.125170612774592   1.0000000
N2   N   0.777794280128349   0.722234208004379   0.125170612774592   1.0000000
N2   N   0.611106594542701   0.222205719871651   0.125170612774592   1.0000000
N2   N   0.944446531964643   0.222226397262621   0.125077916696390   1.0000000
N2   N   0.111108119654478   0.388897902479656   0.624902537460346   1.0000000
N2   N   0.277774688332257   0.888882709997842   0.624892959006021   1.0000000
N2   N   0.611102097520344   0.888891880345522   0.624902537460346   1.0000000
N2   N   0.444416158625448   0.388874745979388   0.624707734369979   1.0000000
N2   N   0.944456449491849   0.888891880345522   0.624902537460346   1.0000000
N2   N   0.111116597139519   0.888883402860481   0.125111540413942   1.0000000
N2   N   0.777794280128349   0.388893405457299   0.624829387225408   1.0000000
N2   N   0.444433472387634   0.888883402860481   0.125111540413942   1.0000000
N2   N   0.277765791995622   0.388893405457299   0.125170612774592   1.0000000
N2   N   0.277776435531432   0.555565513543237   0.125167093732616   1.0000000
N2   N   0.611125254020612   0.388874745979388   0.125292265630021   1.0000000
N2   N   0.777778794249330   0.888890921831989   0.125093694014693   1.0000000
N2   N   0.944456449491849   0.388897902479656   0.125097462539654   1.0000000
N2   N   0.111116597139519   0.555566527612366   0.624888459586057   1.0000000
N2   N   0.277776435531432   0.055544255321531   0.624832906267385   1.0000000
N2   N   0.777775160184953   0.555554246759144   0.624650813168455   1.0000000
N2   N   0.611102097520344   0.055543550508151   0.624902537460346   1.0000000
N2   N   0.944446531964643   0.055553468035358   0.624922083303610   1.0000000
N2   N   0.054634759351563   0.110523901882738   0.375000000000000   1.0000000
N2   N   0.555870881989460   0.618795605988348   0.375000000000000   1.0000000
N2   N   0.388036736890671   0.109406807114684   0.375000000000000   1.0000000
N2   N   0.890593192885316   0.611963263109329   0.375000000000000   1.0000000
N2   N   0.722555809197839   0.110523901882738   0.375000000000000   1.0000000
N2   N   0.055550056835071   0.777778025142910   0.875000000000000   1.0000000
N2   N   0.388894634974503   0.777778025142910   0.875000000000000   1.0000000
N2   N   0.222220263505827   0.277776798419582   0.875000000000000   1.0000000
N2   N   0.722223201580419   0.777779736494172   0.875000000000000   1.0000000
N2   N   0.555556988186294   0.277780208410888   0.875000000000000   1.0000000
N2   N   0.888889317587498   0.277775972498241   0.875000000000000   1.0000000
N2   N   0.222222222222221   0.777777777777779   0.375000000000000   1.0000000
N2   N   0.054634759351563   0.277444190802161   0.375000000000000   1.0000000
N2   N   0.381204394011652   0.270408609334447   0.375000000000000   1.0000000
N2   N   0.555330517380052   0.780852695596943   0.375000000000000   1.0000000
N2   N   0.892188844883555   0.780852695596943   0.375000000000000   1.0000000
N2   N   0.723662043048303   0.276337956951697   0.375000000000000   1.0000000
N2   N   0.055553349634035   0.944446650365965   0.875000000000000   1.0000000
N2   N   0.388894634974503   0.944449943164929   0.875000000000000   1.0000000
N2   N   0.222219893230304   0.444440010398435   0.875000000000000   1.0000000
N2   N   0.555555555555557   0.444444444444443   0.875000000000000   1.0000000
N2   N   0.722224027501760   0.944446678422593   0.875000000000000   1.0000000
N2   N   0.888886783834796   0.444440010398435   0.875000000000000   1.0000000
N2   N   0.055688748972912   0.444710831279154   0.375000000000000   1.0000000
N2   N   0.221951153319567   0.943729065239607   0.375000000000000   1.0000000
N2   N   0.555289168720846   0.944311251027087   0.375000000000000   1.0000000
N2   N   0.381204394011652   0.444129118010540   0.375000000000000   1.0000000
N2   N   0.889476098117262   0.945365240648437   0.375000000000000   1.0000000
N2   N   0.729591390665553   0.444129118010540   0.375000000000000   1.0000000
N2   N   0.222221974857090   0.611105365025496   0.875000000000000   1.0000000
N2   N   0.055553321577407   0.111110682412502   0.875000000000000   1.0000000
N2   N   0.555556988186294   0.611110113108742   0.875000000000000   1.0000000
N2   N   0.388892673633033   0.111118680599409   0.875000000000000   1.0000000
N2   N   0.888881319400591   0.611107326366967   0.875000000000000   1.0000000
N2   N   0.056270934760393   0.611555421413296   0.375000000000000   1.0000000
N2   N   0.722224027501760   0.111110682412502   0.875000000000000   1.0000000
N2   N   0.219147304403057   0.107811155116445   0.375000000000000   1.0000000
N2   N   0.388036736890671   0.611963263109329   0.375000000000000   1.0000000
N2   N   0.729591390665553   0.618795605988348   0.375000000000000   1.0000000
N2   N   0.555330517380052   0.107811155116445   0.375000000000000   1.0000000
N2   N   0.388892673633033   0.611107326366967   0.875000000000000   1.0000000
N2   N   0.888888888888886   0.111111111111114   0.375000000000000   1.0000000
N2   N   0.222222222222221   0.777777777777779   0.875000000000000   1.0000000
N2   N   0.055553321577407   0.277775972498241   0.875000000000000   1.0000000
N2   N   0.388889886891258   0.277780208410888   0.875000000000000   1.0000000
N2   N   0.555559989601565   0.777780106769696   0.875000000000000   1.0000000
N2   N   0.888886783834796   0.777780106769696   0.875000000000000   1.0000000
N2   N   0.722223201580419   0.277776798419582   0.875000000000000   1.0000000
N2   N   0.056270934760393   0.778048846680432   0.375000000000000   1.0000000
N2   N   0.388444578586704   0.778048846680432   0.375000000000000   1.0000000
N2   N   0.219342580570059   0.276337956951697   0.375000000000000   1.0000000
N2   N   0.723662043048303   0.780657419429941   0.375000000000000   1.0000000
N2   N   0.555870881989460   0.270408609334447   0.375000000000000   1.0000000
N2   N   0.889476098117262   0.277444190802161   0.375000000000000   1.0000000
N2   N   0.055553349634035   0.444440032601398   0.875000000000000   1.0000000
N2   N   0.222221974857090   0.944449943164929   0.875000000000000   1.0000000
N2   N   0.555559967398602   0.944446650365965   0.875000000000000   1.0000000
N2   N   0.388889886891258   0.444443011813706   0.875000000000000   1.0000000
N2   N   0.888889317587498   0.944446678422593   0.875000000000000   1.0000000
N2   N   0.055688748972912   0.944311251027087   0.375000000000000   1.0000000
N2   N   0.722219791589111   0.444443011813706   0.875000000000000   1.0000000
N2   N   0.388444578586704   0.943729065239607   0.375000000000000   1.0000000
N2   N   0.219147304403057   0.444669482619948   0.375000000000000   1.0000000
N2   N   0.221951153319567   0.611555421413296   0.375000000000000   1.0000000
N2   N   0.722555809197839   0.945365240648437   0.375000000000000   1.0000000
N2   N   0.892188844883555   0.444669482619948   0.375000000000000   1.0000000
N2   N   0.055550056835071   0.611105365025496   0.875000000000000   1.0000000
N2   N   0.222219893230304   0.111113216165204   0.875000000000000   1.0000000
N2   N   0.722219791589111   0.611110113108742   0.875000000000000   1.0000000
N2   N   0.555559989601565   0.111113216165204   0.875000000000000   1.0000000
N2   N   0.888888888888886   0.111111111111114   0.875000000000000   1.0000000
B2   B   0.109117803859691   0.054111178593314   0.375000000000000   1.0000000
B2   B   0.622737496368294   0.578808326069916   0.375000000000000   1.0000000
B2   B   0.444164311085470   0.053918936508454   0.375000000000000   1.0000000
B2   B   0.946081063491547   0.555835688914530   0.375000000000000   1.0000000
B2   B   0.778287507672762   0.055810420503049   0.375000000000000   1.0000000
B2   B   0.111115737857082   0.722224535595205   0.875000000000000   1.0000000
B2   B   0.444446973353746   0.722244842274360   0.875000000000000   1.0000000
B2   B   0.277728768723187   0.222191426239066   0.875000000000000   1.0000000
B2   B   0.777808573760934   0.722271231276813   0.875000000000000   1.0000000
B2   B   0.611129324182550   0.222191426239066   0.875000000000000   1.0000000
B2   B   0.944438207812887   0.222209748959109   0.875000000000000   1.0000000
B2   B   0.277540898835056   0.722459101164944   0.375000000000000   1.0000000
B2   B   0.108755883379148   0.221044608356238   0.375000000000000   1.0000000
B2   B   0.442800518823625   0.218934370980585   0.375000000000000   1.0000000
B2   B   0.612459381371717   0.729047726122247   0.375000000000000   1.0000000
B2   B   0.946081063491547   0.723578707910352   0.375000000000000   1.0000000
B2   B   0.778955391643761   0.221044608356238   0.375000000000000   1.0000000
B2   B   0.111107114244395   0.888892885755604   0.875000000000000   1.0000000
B2   B   0.444452438177880   0.888892885755604   0.875000000000000   1.0000000
B2   B   0.277728768723187   0.388870675817450   0.875000000000000   1.0000000
B2   B   0.611131698885059   0.388868301114940   0.875000000000000   1.0000000
B2   B   0.777796543567447   0.888926420468221   0.875000000000000   1.0000000
B2   B   0.944454024669985   0.388872661775194   0.875000000000000   1.0000000
B2   B   0.109117803859691   0.388339958599705   0.375000000000000   1.0000000
B2   B   0.277540898835056   0.888415131003440   0.375000000000000   1.0000000
B2   B   0.611660041400295   0.890882196140309   0.375000000000000   1.0000000
B2   B   0.421191673930084   0.377262503631706   0.375000000000000   1.0000000
B2   B   0.945888821406686   0.890882196140309   0.375000000000000   1.0000000
B2   B   0.783255011417201   0.387540618628283   0.375000000000000   1.0000000
B2   B   0.277755157725640   0.555553026646254   0.875000000000000   1.0000000
B2   B   0.111085303771881   0.055545975330016   0.875000000000000   1.0000000
B2   B   0.611131698885059   0.555596731103448   0.875000000000000   1.0000000
B2   B   0.444446973353746   0.055535464412722   0.875000000000000   1.0000000
B2   B   0.944464535587278   0.555553026646254   0.875000000000000   1.0000000
B2   B   0.111180526735748   0.555694386804825   0.375000000000000   1.0000000
B2   B   0.777790251040891   0.055561792187113   0.875000000000000   1.0000000
B2   B   0.276421292089648   0.053918936508454   0.375000000000000   1.0000000
B2   B   0.442800518823625   0.557199481176375   0.375000000000000   1.0000000
B2   B   0.781065629019414   0.557199481176375   0.375000000000000   1.0000000
B2   B   0.611660041400295   0.054111178593314   0.375000000000000   1.0000000
B2   B   0.444427704158302   0.555572295841698   0.875000000000000   1.0000000
B2   B   0.944189579496951   0.055810420503049   0.375000000000000   1.0000000
B2   B   0.277775464404795   0.722224535595205   0.875000000000000   1.0000000
B2   B   0.111073579531779   0.222203456432554   0.875000000000000   1.0000000
B2   B   0.444427704158302   0.222188741649940   0.875000000000000   1.0000000
B2   B   0.611129324182550   0.722271231276813   0.875000000000000   1.0000000
B2   B   0.944464535587278   0.722244842274360   0.875000000000000   1.0000000
B2   B   0.777796543567447   0.222203456432554   0.875000000000000   1.0000000
B2   B   0.111584868996560   0.722459101164944   0.375000000000000   1.0000000
B2   B   0.444164311085470   0.723578707910352   0.375000000000000   1.0000000
B2   B   0.270952273877753   0.216744988582799   0.375000000000000   1.0000000
B2   B   0.783255011417201   0.729047726122247   0.375000000000000   1.0000000
B2   B   0.612459381371717   0.216744988582799   0.375000000000000   1.0000000
B2   B   0.944189579496951   0.221712492327238   0.375000000000000   1.0000000
B2   B   0.111085303771881   0.388872661775194   0.875000000000000   1.0000000
B2   B   0.277775464404795   0.888884262142918   0.875000000000000   1.0000000
B2   B   0.611127338224806   0.888914696228119   0.875000000000000   1.0000000
B2   B   0.444403268896552   0.388868301114940   0.875000000000000   1.0000000
B2   B   0.944454024669985   0.888914696228119   0.875000000000000   1.0000000
B2   B   0.111180526735748   0.888819473264252   0.375000000000000   1.0000000
B2   B   0.777808573760934   0.388870675817450   0.875000000000000   1.0000000
B2   B   0.444305613195175   0.888819473264252   0.375000000000000   1.0000000
B2   B   0.270952273877753   0.387540618628283   0.375000000000000   1.0000000
B2   B   0.276421292089648   0.555835688914530   0.375000000000000   1.0000000
B2   B   0.622737496368294   0.377262503631706   0.375000000000000   1.0000000
B2   B   0.778955391643761   0.891244116620852   0.375000000000000   1.0000000
B2   B   0.945888821406686   0.388339958599705   0.375000000000000   1.0000000
B2   B   0.111107114244395   0.555547561822120   0.875000000000000   1.0000000
B2   B   0.277755157725640   0.055535464412722   0.875000000000000   1.0000000
B2   B   0.777811258350060   0.555572295841698   0.875000000000000   1.0000000
B2   B   0.611127338224806   0.055545975330016   0.875000000000000   1.0000000
B2   B   0.944438207812887   0.055561792187113   0.875000000000000   1.0000000
B2   B   0.055514018134709   0.111077840059311   0.124898728587185   1.0000000
B2   B   0.555530348776953   0.611271563497382   0.124710786233451   1.0000000
B2   B   0.388801434957187   0.110936203247716   0.124894283164965   1.0000000
B2   B   0.889063796752284   0.611198565042813   0.124894283164965   1.0000000
B2   B   0.722230488591266   0.111077840059311   0.124898728587185   1.0000000
B2   B   0.055628503103129   0.777806916977278   0.625092523089483   1.0000000
B2   B   0.388845080540813   0.777806916977278   0.625092523089483   1.0000000
B2   B   0.222098145106158   0.277715739219747   0.625179188198133   1.0000000
B2   B   0.722284260780253   0.777901854893843   0.625179188198133   1.0000000
B2   B   0.555530348776953   0.277592118612907   0.625289213766549   1.0000000
B2   B   0.888922159940689   0.277769511408734   0.625101271412816   1.0000000
B2   B   0.222222222222221   0.777777777777779   0.124906309341978   1.0000000
B2   B   0.055514018134709   0.277769511408734   0.124898728587185   1.0000000
B2   B   0.388728436502618   0.277592118612907   0.124710786233451   1.0000000
B2   B   0.555532210719469   0.777871176910314   0.124870960861754   1.0000000
B2   B   0.889005632857510   0.777871176910314   0.124870960861754   1.0000000
B2   B   0.722284260780253   0.277715739219747   0.124820811801867   1.0000000
B2   B   0.055567002099366   0.944432997900634   0.625100191612076   1.0000000
B2   B   0.388845080540813   0.944371496896871   0.625092523089483   1.0000000
B2   B   0.222128823089686   0.444467789280531   0.625129039138246   1.0000000
B2   B   0.555555555555557   0.444444444444443   0.625613996054494   1.0000000
B2   B   0.722230488591266   0.944485981865291   0.625101271412816   1.0000000
B2   B   0.889005632857510   0.444467789280531   0.625129039138246   1.0000000
B2   B   0.055567002099366   0.444467337532061   0.124899808387924   1.0000000
B2   B   0.222193083022722   0.944371496896871   0.124907476910516   1.0000000
B2   B   0.555532662467939   0.944432997900634   0.124899808387924   1.0000000
B2   B   0.388728436502618   0.444469651223047   0.124710786233451   1.0000000
B2   B   0.888922159940689   0.944485981865291   0.124898728587185   1.0000000
B2   B   0.722407881387093   0.444469651223047   0.124710786233451   1.0000000
B2   B   0.222193083022722   0.611154919459188   0.625092523089483   1.0000000
B2   B   0.055514018134709   0.111077840059311   0.625101271412816   1.0000000
B2   B   0.555530348776953   0.611271563497382   0.625289213766549   1.0000000
B2   B   0.388801434957187   0.110936203247716   0.625105716835035   1.0000000
B2   B   0.889063796752284   0.611198565042813   0.625105716835035   1.0000000
B2   B   0.055628503103129   0.611154919459188   0.124907476910516   1.0000000
B2   B   0.722230488591266   0.111077840059311   0.625101271412816   1.0000000
B2   B   0.222128823089686   0.110994367142490   0.124870960861754   1.0000000
B2   B   0.388801434957187   0.611198565042813   0.124894283164965   1.0000000
B2   B   0.722407881387093   0.611271563497382   0.124710786233451   1.0000000
B2   B   0.555532210719469   0.110994367142490   0.124870960861754   1.0000000
B2   B   0.388801434957187   0.611198565042813   0.625105716835035   1.0000000
B2   B   0.888888888888886   0.111111111111114   0.124914405592114   1.0000000
B2   B   0.222222222222221   0.777777777777779   0.625093690658022   1.0000000
B2   B   0.055514018134709   0.277769511408734   0.625101271412816   1.0000000
B2   B   0.388728436502618   0.277592118612907   0.625289213766549   1.0000000
B2   B   0.555532210719469   0.777871176910314   0.625129039138246   1.0000000
B2   B   0.889005632857510   0.777871176910314   0.625129039138246   1.0000000
B2   B   0.722284260780253   0.277715739219747   0.625179188198133   1.0000000
B2   B   0.055628503103129   0.777806916977278   0.124907476910516   1.0000000
B2   B   0.388845080540813   0.777806916977278   0.124907476910516   1.0000000
B2   B   0.222098145106158   0.277715739219747   0.124820811801867   1.0000000
B2   B   0.722284260780253   0.777901854893843   0.124820811801867   1.0000000
B2   B   0.555530348776953   0.277592118612907   0.124710786233451   1.0000000
B2   B   0.888922159940689   0.277769511408734   0.124898728587185   1.0000000
B2   B   0.055567002099366   0.444467337532061   0.625100191612076   1.0000000
B2   B   0.222193083022722   0.944371496896871   0.625092523089483   1.0000000
B2   B   0.555532662467939   0.944432997900634   0.625100191612076   1.0000000
B2   B   0.388728436502618   0.444469651223047   0.625289213766549   1.0000000
B2   B   0.888922159940689   0.944485981865291   0.625101271412816   1.0000000
B2   B   0.055567002099366   0.944432997900634   0.124899808387924   1.0000000
B2   B   0.722407881387093   0.444469651223047   0.625289213766549   1.0000000
B2   B   0.388845080540813   0.944371496896871   0.124907476910516   1.0000000
B2   B   0.222128823089686   0.444467789280531   0.124870960861754   1.0000000
B2   B   0.222193083022722   0.611154919459188   0.124907476910516   1.0000000
B2   B   0.555555555555557   0.444444444444443   0.124386003945506   1.0000000
B2   B   0.722230488591266   0.944485981865291   0.124898728587185   1.0000000
B2   B   0.889005632857510   0.444467789280531   0.124870960861754   1.0000000
B2   B   0.055628503103129   0.611154919459188   0.625092523089483   1.0000000
B2   B   0.222128823089686   0.110994367142490   0.625129039138246   1.0000000
B2   B   0.722407881387093   0.611271563497382   0.625289213766549   1.0000000
B2   B   0.555532210719469   0.110994367142490   0.625129039138246   1.0000000
B2   B   0.888888888888886   0.111111111111114   0.625085594407886   1.0000000


