data_1
_audit_creation_method   'vasp2cif'
_cell_length_a    17.52789999999977
_cell_length_b    17.52789999999977
_cell_length_c    15.0
_cell_angle_alpha    90.0
_cell_angle_beta    90.0
_cell_angle_gamma    119.99999999999916

_symmetry_space_group_name_H-M    'P 1'
loop_
_atom_site_label
_atom_site_type_symbol
_atom_site_fract_x
_atom_site_fract_y
_atom_site_fract_z
_atom_site_occupancy
Sb2   Sb   0.521501485047365   0.493189351954912   0.110896016337347   1.0000000
B2   B   0.905801363122006   0.952938114864197   0.111041742298185   1.0000000
B2   B   0.903265023824465   0.093700441087010   0.111101598649959   1.0000000
B2   B   0.902835753960548   0.236007398762609   0.111108274213228   1.0000000
B2   B   0.903918780686944   0.379237316367939   0.111088876637668   1.0000000
B2   B   0.908059303574304   0.523681064216846   0.111147603784608   1.0000000
B2   B   0.910652267591093   0.668636990557425   0.111094569844506   1.0000000
B2   B   0.910395804317198   0.813104611857130   0.111046640859001   1.0000000
B2   B   0.049353754995284   0.953375614876453   0.111046519895652   1.0000000
B2   B   0.047128064678484   0.095088772966935   0.111044504040009   1.0000000
B2   B   0.045136533589229   0.236514703641668   0.111021850297644   1.0000000
B2   B   0.044754442350012   0.379133113230281   0.111021304926089   1.0000000
B2   B   0.046503427330287   0.523039793859086   0.111100248816575   1.0000000
B2   B   0.049291167803369   0.667321949391007   0.111123693148903   1.0000000
B2   B   0.050575836136976   0.810947130269854   0.111079147059772   1.0000000
B2   B   0.191634252868546   0.952711909180040   0.110973652557647   1.0000000
B2   B   0.189099489264925   0.093871473092578   0.111023975043658   1.0000000
B2   B   0.188731124909075   0.237966963471049   0.111037152757946   1.0000000
B2   B   0.186141656907460   0.379639964875243   0.110984783572169   1.0000000
B2   B   0.185289890578394   0.522897556390721   0.111000656123575   1.0000000
B2   B   0.188389147211389   0.666662341321709   0.111097408639378   1.0000000
B2   B   0.191534945518844   0.810014994604627   0.110955270311028   1.0000000
B2   B   0.333809189928113   0.951924153159654   0.110830593397597   1.0000000
B2   B   0.333160900352249   0.094200756029456   0.110972899204529   1.0000000
B2   B   0.327871180152125   0.233327202395088   0.111086484554488   1.0000000
B2   B   0.330985615406324   0.384524952588432   0.111190227989169   1.0000000
B2   B   0.323269113810253   0.523775324300775   0.111050086608597   1.0000000
B2   B   0.327321388151325   0.666492553952567   0.110972930473964   1.0000000
B2   B   0.333068377193457   0.809309821111672   0.110883897793791   1.0000000
B2   B   0.475975649730007   0.950074924083767   0.110698791154708   1.0000000
B2   B   0.476104114047934   0.092899094237252   0.110847943414984   1.0000000
B2   B   0.475736721188488   0.234230583306264   0.111019180641496   1.0000000
B2   B   0.464320957048601   0.362708756811090   0.111147971950638   1.0000000
B2   B   0.474222630996629   0.575300503519451   0.111409778007630   1.0000000
B2   B   0.466388088505464   0.659780557485341   0.111056245494565   1.0000000
B2   B   0.475121590100565   0.806031753789104   0.110827581405263   1.0000000
B2   B   0.618033122329346   0.949574076204707   0.110845875393511   1.0000000
B2   B   0.618448520432817   0.092978304602651   0.110875533441499   1.0000000
B2   B   0.619147848010195   0.236276302898195   0.110978117028135   1.0000000
B2   B   0.621341135788464   0.380493399919781   0.111101632065488   1.0000000
B2   B   0.647771991971120   0.536839550038292   0.111279213355099   1.0000000
B2   B   0.628414903401069   0.668991604736994   0.111223435357045   1.0000000
B2   B   0.616966717212740   0.805654661703868   0.110951916774932   1.0000000
B2   B   0.760713703773225   0.950522218747629   0.111025219691988   1.0000000
B2   B   0.760527802032633   0.093003948107024   0.111073399538346   1.0000000
B2   B   0.761068576551759   0.235984656259717   0.111071459012408   1.0000000
B2   B   0.763058355966553   0.379566519944595   0.111073719091890   1.0000000
B2   B   0.771124859374219   0.524824776217224   0.111106536944150   1.0000000
B2   B   0.775778668791839   0.674272882960884   0.111048673704580   1.0000000
B2   B   0.764795401748944   0.810963020648211   0.110968068608623   1.0000000
N2   N   0.955373227353877   0.907120509329806   0.111030656782131   1.0000000
N2   N   0.952261589372266   0.047630353069389   0.111053200835552   1.0000000
N2   N   0.950249795330976   0.188595181473746   0.111073890843078   1.0000000
N2   N   0.950079129451847   0.330964566903108   0.111054528993499   1.0000000
N2   N   0.952465099579339   0.474481836752403   0.111112865221254   1.0000000
N2   N   0.955394825778249   0.619170170902689   0.111136757254447   1.0000000
N2   N   0.956517347255061   0.763872484145285   0.111092890194116   1.0000000
N2   N   0.097001249967032   0.905794776671393   0.111025016808712   1.0000000
N2   N   0.094864378308505   0.047515875544216   0.111028768080322   1.0000000
N2   N   0.093595925567555   0.189886586742626   0.111006932039728   1.0000000
N2   N   0.091347622359007   0.331042748224479   0.110973766362179   1.0000000
N2   N   0.091150972147203   0.474081480311849   0.111016720166183   1.0000000
N2   N   0.094047530340083   0.618383054703133   0.111111680093891   1.0000000
N2   N   0.096844687066266   0.762568451775541   0.111044438954665   1.0000000
N2   N   0.238876853043470   0.905063520855749   0.110874791489227   1.0000000
N2   N   0.238083044526109   0.047338032625474   0.110979616625233   1.0000000
N2   N   0.234039857446144   0.187609151425521   0.111009895290738   1.0000000
N2   N   0.235076923411380   0.333188765548107   0.111022989710915   1.0000000
N2   N   0.229535999712090   0.473761678025571   0.110939010109358   1.0000000
N2   N   0.232503661753873   0.617962605781780   0.111046842778779   1.0000000
N2   N   0.237648709864295   0.762025019486502   0.110977604977798   1.0000000
N2   N   0.380935734649863   0.904432183306911   0.110720314524593   1.0000000
N2   N   0.381061732071715   0.046811739384219   0.110852429107581   1.0000000
N2   N   0.379835922077315   0.188677351714210   0.111002312554522   1.0000000
N2   N   0.371862174410463   0.326042035948194   0.111201807179999   1.0000000
N2   N   0.373174822661660   0.480426375782319   0.111259061483408   1.0000000
N2   N   0.369697710424911   0.618190300906394   0.110926285239156   1.0000000
N2   N   0.379197562631367   0.761857689050488   0.110890305642260   1.0000000
N2   N   0.523039423523570   0.902295579124338   0.110697902075881   1.0000000
N2   N   0.523520906701643   0.045462031375372   0.110729643847101   1.0000000
N2   N   0.523853739282234   0.187721680836892   0.110926769601823   1.0000000
N2   N   0.523882856086495   0.328809860584046   0.111098426101090   1.0000000
N2   N   0.521688094281493   0.757760615624596   0.110923675583018   1.0000000
N2   N   0.665678762505928   0.902331418858514   0.110921222707149   1.0000000
N2   N   0.665696541271799   0.045352479946553   0.110900793681375   1.0000000
N2   N   0.666159532356401   0.188398832951593   0.110969962939831   1.0000000
N2   N   0.667580662330556   0.331705675017862   0.111025178230404   1.0000000
N2   N   0.678024862070785   0.476242226363531   0.111134243606683   1.0000000
N2   N   0.684249780283577   0.628931155940300   0.111187851551355   1.0000000
N2   N   0.669982287632659   0.762964570831406   0.110978263233911   1.0000000
N2   N   0.811080410572364   0.905632634295401   0.110991284193444   1.0000000
N2   N   0.808318347332822   0.045921695304690   0.111077380130828   1.0000000
N2   N   0.808020524405193   0.188215135226330   0.111100392627233   1.0000000
N2   N   0.809079706522373   0.331135560325143   0.111069482154728   1.0000000
N2   N   0.814396606503148   0.474994569607082   0.111097093874240   1.0000000
N2   N   0.817474965431654   0.621032936781781   0.111039392921212   1.0000000
N2   N   0.817280629199378   0.767423960200282   0.110956913359840   1.0000000


