data_1
_audit_creation_method   'vasp2cif'
_cell_length_a    17.52789999999977
_cell_length_b    17.52789999999977
_cell_length_c    15.0
_cell_angle_alpha    90.0
_cell_angle_beta    90.0
_cell_angle_gamma    119.99999999999916

_symmetry_space_group_name_H-M    'P 1'
loop_
_atom_site_label
_atom_site_type_symbol
_atom_site_fract_x
_atom_site_fract_y
_atom_site_fract_z
_atom_site_occupancy
B2   B   0.905376821228935   0.953468008935680   0.110987282358045   1.0000000
B2   B   0.905811801661704   0.096512805337853   0.111080423005066   1.0000000
B2   B   0.905421969367003   0.238990223625689   0.111133595573809   1.0000000
B2   B   0.903685189155698   0.380989495591312   0.111000824222129   1.0000000
B2   B   0.901000517276744   0.522778437794759   0.110979432757232   1.0000000
B2   B   0.901990888628361   0.665385590469351   0.110999336799618   1.0000000
B2   B   0.903975340659684   0.809510846191618   0.111008579612223   1.0000000
B2   B   0.047115524598969   0.951951469868009   0.110994380854610   1.0000000
B2   B   0.048950986958516   0.096306755382416   0.111028991602390   1.0000000
B2   B   0.049784792634164   0.239198844141180   0.111094576659608   1.0000000
B2   B   0.049255294154752   0.381182876179527   0.111009237108453   1.0000000
B2   B   0.047018373347417   0.522945319543247   0.110970647481215   1.0000000
B2   B   0.045742009781230   0.665182428644243   0.110984975125372   1.0000000
B2   B   0.045933851036710   0.808074916920319   0.110983291189494   1.0000000
B2   B   0.189058472625867   0.950537397867879   0.111060829314462   1.0000000
B2   B   0.190371656487251   0.094428256675800   0.111071158139808   1.0000000
B2   B   0.193999207487569   0.239417936558254   0.111078195848328   1.0000000
B2   B   0.195214073511425   0.381223547014652   0.111031676070318   1.0000000
B2   B   0.193043126154912   0.523224439351076   0.110994243658719   1.0000000
B2   B   0.189877936060498   0.665392010371747   0.111012887568593   1.0000000
B2   B   0.189180383488232   0.807861515988770   0.111004129358261   1.0000000
B2   B   0.332291710278305   0.950520439818991   0.111041105105197   1.0000000
B2   B   0.331760468793861   0.092378722377957   0.111109795626494   1.0000000
B2   B   0.334906919375069   0.236989201307327   0.111059846095789   1.0000000
B2   B   0.343559194531303   0.379855933461548   0.111058616358198   1.0000000
B2   B   0.339820427258070   0.524915558336878   0.111037009333371   1.0000000
B2   B   0.333623151466707   0.666321779510493   0.111081974479993   1.0000000
B2   B   0.332756585788197   0.808388619520260   0.111034829603282   1.0000000
B2   B   0.475737576164417   0.951720911624063   0.111010419485909   1.0000000
B2   B   0.475153701923379   0.093772904565931   0.111059528065186   1.0000000
B2   B   0.473241862907513   0.235559982513990   0.111044483968283   1.0000000
B2   B   0.476426161085294   0.667797853538301   0.111057453939462   1.0000000
B2   B   0.476255828300112   0.809642519460789   0.111049623863127   1.0000000
B2   B   0.619159294711617   0.953324063290186   0.110984346891452   1.0000000
B2   B   0.618639023463516   0.095686390116761   0.111014061830530   1.0000000
B2   B   0.616954641342062   0.238093549927004   0.111022460135678   1.0000000
B2   B   0.609907839693888   0.378714588599916   0.111028791995177   1.0000000
B2   B   0.611806344941315   0.527700479835982   0.111072209842506   1.0000000
B2   B   0.620483411946102   0.670444980453987   0.111049685513856   1.0000000
B2   B   0.619543454738957   0.811502914421630   0.111019253183942   1.0000000
B2   B   0.762534290071570   0.953844676657535   0.110998231174319   1.0000000
B2   B   0.762211536122070   0.096324355674818   0.111094339973902   1.0000000
B2   B   0.761095300864123   0.238719580940816   0.111080517415645   1.0000000
B2   B   0.757929030500089   0.380548023652129   0.111012636226124   1.0000000
B2   B   0.754481412212285   0.522804304461724   0.111025291055359   1.0000000
B2   B   0.760549048724534   0.667393495802570   0.111079360730919   1.0000000
B2   B   0.762502951171252   0.811249020863095   0.111026091483102   1.0000000
C2   C   0.487201930501304   0.529590718247222   0.110921450530507   1.0000000
N2   N   0.951753285654940   0.904613525519936   0.110950745030013   1.0000000
N2   N   0.953247360976434   0.048681578844371   0.110994602142631   1.0000000
N2   N   0.953814155965766   0.191828346428483   0.111102466387392   1.0000000
N2   N   0.953153545488135   0.334288370935608   0.111024743282104   1.0000000
N2   N   0.950811681726466   0.476162403834241   0.110949858044065   1.0000000
N2   N   0.949819570673747   0.617961429840794   0.110957758687115   1.0000000
N2   N   0.950296355560415   0.760642957595100   0.110955915645531   1.0000000
N2   N   0.093639924559694   0.903118449549580   0.110990683971294   1.0000000
N2   N   0.094880918475461   0.047081771568765   0.110996306522388   1.0000000
N2   N   0.097487842693176   0.191858701017199   0.111050575238818   1.0000000
N2   N   0.098635193709436   0.334687000265178   0.111029347557584   1.0000000
N2   N   0.096912873212899   0.476370114609459   0.110945680926368   1.0000000
N2   N   0.094346865354688   0.618032166988175   0.110959940334060   1.0000000
N2   N   0.093575559689584   0.760263615598324   0.110960572693421   1.0000000
N2   N   0.236738554902814   0.902701452210239   0.111006466788076   1.0000000
N2   N   0.236359269611502   0.045084868018442   0.111085091897534   1.0000000
N2   N   0.238331871241590   0.189267380238397   0.111054654201413   1.0000000
N2   N   0.244667056398565   0.335764181586656   0.111057736799644   1.0000000
N2   N   0.243939293453528   0.477042971326645   0.110979811993427   1.0000000
N2   N   0.238829001859033   0.618293583473679   0.110997059137989   1.0000000
N2   N   0.237337640333807   0.760382093400767   0.110985239141882   1.0000000
N2   N   0.380329302628465   0.903168180805151   0.110990994440980   1.0000000
N2   N   0.379743033760182   0.044936199650551   0.111070454293365   1.0000000
N2   N   0.378485471220583   0.185688687040239   0.111070983517217   1.0000000
N2   N   0.383388578964755   0.329430272987015   0.111025904672046   1.0000000
N2   N   0.396931403435270   0.481448764487445   0.110978392322431   1.0000000
N2   N   0.382826772380714   0.619144671967654   0.111044967442791   1.0000000
N2   N   0.381055356845002   0.761063115916687   0.111026350341462   1.0000000
N2   N   0.523815908125178   0.904459918073021   0.110951060935730   1.0000000
N2   N   0.523372510806968   0.046587035931390   0.110999671995691   1.0000000
N2   N   0.522306610654030   0.188227305266840   0.111026460665013   1.0000000
N2   N   0.518907250950690   0.327435986510463   0.110988822947432   1.0000000
N2   N   0.524051674293463   0.618587463027431   0.110963254890342   1.0000000
N2   N   0.524363297474306   0.762153090206317   0.111039130560223   1.0000000
N2   N   0.667071622744846   0.905971428099454   0.110938289568690   1.0000000
N2   N   0.666813995466598   0.048329442527143   0.110990066736943   1.0000000
N2   N   0.665964192951667   0.190931033475335   0.111011695569068   1.0000000
N2   N   0.663051094214264   0.333737463058980   0.110998842471300   1.0000000
N2   N   0.655549611323557   0.476559239064338   0.111037806628317   1.0000000
N2   N   0.664249644974338   0.620687861369163   0.111034354909724   1.0000000
N2   N   0.666858764946758   0.763804269831971   0.111021168120092   1.0000000
N2   N   0.809919506569931   0.905970097420819   0.110942641233633   1.0000000
N2   N   0.810217696966694   0.048867232618541   0.111034932232796   1.0000000
N2   N   0.809812902212642   0.191572222123712   0.111115315797857   1.0000000
N2   N   0.807973624754325   0.334082889785012   0.111007314727898   1.0000000
N2   N   0.804397926468840   0.476180800105280   0.110979154838936   1.0000000
N2   N   0.805658260818999   0.618141562617218   0.111005180208982   1.0000000
N2   N   0.808452336291721   0.762271710504487   0.111011864398214   1.0000000


