data_1
_audit_creation_method   'vasp2cif'
_cell_length_a    14.93631414619966
_cell_length_b    14.936314146199727
_cell_length_c    13.341276283792837
_cell_angle_alpha    90.0
_cell_angle_beta    90.0
_cell_angle_gamma    119.99999999999984

_symmetry_space_group_name_H-M    'P 1'
loop_
_atom_site_label
_atom_site_type_symbol
_atom_site_fract_x
_atom_site_fract_y
_atom_site_fract_z
_atom_site_occupancy
P2   P   0.555555555555557   0.444444444444443   0.375000000000000   1.0000000
N2   N   0.111103040779938   0.055545925855060   0.125608685635337   1.0000000
N2   N   0.611132622676332   0.555598578685722   0.124241088969216   1.0000000
N2   N   0.444447911101522   0.055567167340705   0.125687590028084   1.0000000
N2   N   0.944432832659238   0.555552088898756   0.125687590028084   1.0000000
N2   N   0.777779271409598   0.055556302371471   0.125375630297424   1.0000000
N2   N   0.111107302187497   0.722220317760363   0.624552328935734   1.0000000
N2   N   0.444447911101522   0.722214077094209   0.624312409971909   1.0000000
N2   N   0.277744978481173   0.222210560404724   0.624610663643022   1.0000000
N2   N   0.777789439595220   0.722255021518877   0.624610663643022   1.0000000
N2   N   0.611132248590066   0.222210560404724   0.624610663643022   1.0000000
N2   N   0.944443697628430   0.222220728590359   0.624624369702462   1.0000000
N2   N   0.277779682239587   0.722220317760363   0.125447671064259   1.0000000
N2   N   0.111076558669079   0.222204946001158   0.125490969198328   1.0000000
N2   N   0.444457872206077   0.222249077745518   0.125275910439686   1.0000000
N2   N   0.611132248590066   0.722255021518877   0.125389336356757   1.0000000
N2   N   0.944432832659238   0.722214077094209   0.125687590028084   1.0000000
N2   N   0.777795053998672   0.222204946001158   0.125490969198328   1.0000000
N2   N   0.111113702096028   0.888886297903809   0.624431447027477   1.0000000
N2   N   0.444439262474594   0.888886297903809   0.624431447027477   1.0000000
N2   N   0.277744978481173   0.388867751409912   0.624610663643022   1.0000000
N2   N   0.611132622676332   0.388867377323803   0.625758911030813   1.0000000
N2   N   0.777795053998672   0.888923441331091   0.624509030801594   1.0000000
N2   N   0.944454074145053   0.388890448258156   0.624391314364819   1.0000000
N2   N   0.111103040779938   0.388890448258156   0.125608685635337   1.0000000
N2   N   0.277779682239587   0.888892697812504   0.125447671064259   1.0000000
N2   N   0.611109551741638   0.888896959219977   0.125608685635337   1.0000000
N2   N   0.444401421314199   0.388867377323803   0.124241088969216   1.0000000
N2   N   0.944454074145053   0.888896959219977   0.125608685635337   1.0000000
N2   N   0.777789439595227   0.388867751409912   0.125389336356757   1.0000000
N2   N   0.277785922905883   0.555552088898756   0.624312409971909   1.0000000
N2   N   0.111103040779938   0.055545925855060   0.624391314364819   1.0000000
N2   N   0.611132622676332   0.555598578685722   0.625758911030813   1.0000000
N2   N   0.444447911101522   0.055567167340705   0.624312409971909   1.0000000
N2   N   0.944432832659238   0.555552088898756   0.624312409971909   1.0000000
N2   N   0.111113702096028   0.555560737525441   0.125568552972687   1.0000000
N2   N   0.777779271409598   0.055556302371471   0.624624369702462   1.0000000
N2   N   0.277785922905883   0.055567167340705   0.125687590028091   1.0000000
N2   N   0.444457872206077   0.555542127793773   0.125275910439686   1.0000000
N2   N   0.777750922254517   0.555542127793773   0.125275910439686   1.0000000
N2   N   0.611109551741638   0.055545925855060   0.125608685635337   1.0000000
N2   N   0.444457872206077   0.555542127793773   0.624724089560343   1.0000000
N2   N   0.944443697628430   0.055556302371471   0.125375630297424   1.0000000
N2   N   0.277779682239587   0.722220317760363   0.624552328935734   1.0000000
N2   N   0.111076558669079   0.222204946001158   0.624509030801594   1.0000000
N2   N   0.444457872206077   0.222249077745518   0.624724089560343   1.0000000
N2   N   0.611132248590066   0.722255021518877   0.624610663643022   1.0000000
N2   N   0.944432832659238   0.722214077094209   0.624312409971909   1.0000000
N2   N   0.777795053998672   0.222204946001158   0.624509030801594   1.0000000
N2   N   0.111107302187497   0.722220317760363   0.125447671064259   1.0000000
N2   N   0.444447911101522   0.722214077094209   0.125687590028084   1.0000000
N2   N   0.277744978481173   0.222210560404724   0.125389336356757   1.0000000
N2   N   0.777789439595227   0.722255021518877   0.125389336356757   1.0000000
N2   N   0.611132248590066   0.222210560404724   0.125389336356757   1.0000000
N2   N   0.944443697628430   0.222220728590359   0.125375630297424   1.0000000
N2   N   0.111103040779938   0.388890448258156   0.624391314364819   1.0000000
N2   N   0.277779682239587   0.888892697812504   0.624552328935734   1.0000000
N2   N   0.611109551741638   0.888896959219977   0.624391314364819   1.0000000
N2   N   0.444401421314199   0.388867377323803   0.625758911030813   1.0000000
N2   N   0.944454074145053   0.888896959219977   0.624391314364819   1.0000000
N2   N   0.111113702096028   0.888886297903809   0.125568552972687   1.0000000
N2   N   0.777789439595220   0.388867751409912   0.624610663643022   1.0000000
N2   N   0.444439262474594   0.888886297903809   0.125568552972687   1.0000000
N2   N   0.277744978481173   0.388867751409912   0.125389336356757   1.0000000
N2   N   0.277785922905883   0.555552088898756   0.125687590028084   1.0000000
N2   N   0.611132622676332   0.388867377323803   0.124241088969216   1.0000000
N2   N   0.777795053998672   0.888923441331091   0.125490969198328   1.0000000
N2   N   0.944454074145053   0.388890448258156   0.125608685635337   1.0000000
N2   N   0.111113702096028   0.555560737525441   0.624431447027477   1.0000000
N2   N   0.277785922905883   0.055567167340705   0.624312409971909   1.0000000
N2   N   0.777750922254517   0.555542127793773   0.624724089560343   1.0000000
N2   N   0.611109551741638   0.055545925855060   0.624391314364819   1.0000000
N2   N   0.944443697628430   0.055556302371471   0.624624369702462   1.0000000
N2   N   0.054663253973688   0.110551348422932   0.375000000000000   1.0000000
N2   N   0.555467875771918   0.618887976733932   0.375000000000000   1.0000000
N2   N   0.387817918703985   0.108969170741398   0.375000000000000   1.0000000
N2   N   0.891030829258687   0.612182081296115   0.375000000000000   1.0000000
N2   N   0.722554761116022   0.110551348422932   0.375000000000000   1.0000000
N2   N   0.055552403000121   0.777776698469685   0.875000000000000   1.0000000
N2   N   0.388890962136271   0.777776698469685   0.875000000000000   1.0000000
N2   N   0.222219303691443   0.277776318512307   0.875000000000000   1.0000000
N2   N   0.722223681487735   0.777780696308721   0.875000000000000   1.0000000
N2   N   0.555557510043680   0.277777370158550   0.875000000000000   1.0000000
N2   N   0.888892703825819   0.277782642060294   0.875000000000000   1.0000000
N2   N   0.222222222222221   0.777777777777779   0.375000000000000   1.0000000
N2   N   0.054663253973688   0.277445238884049   0.375000000000000   1.0000000
N2   N   0.381112023265996   0.269913232371122   0.375000000000000   1.0000000
N2   N   0.555232216295505   0.780924000218103   0.375000000000000   1.0000000
N2   N   0.892358450588901   0.780924000218103   0.375000000000000   1.0000000
N2   N   0.723595600895056   0.276404399105043   0.375000000000000   1.0000000
N2   N   0.055556572799795   0.944443427200205   0.875000000000000   1.0000000
N2   N   0.388890962136271   0.944447597000071   0.875000000000000   1.0000000
N2   N   0.222221550110646   0.444446648709869   0.875000000000000   1.0000000
N2   N   0.555555555555557   0.444444444444443   0.875000000000000   1.0000000
N2   N   0.722217357939969   0.944443395098790   0.875000000000000   1.0000000
N2   N   0.888891765265837   0.444446648709869   0.875000000000000   1.0000000
N2   N   0.055714553804954   0.444762440943238   0.375000000000000   1.0000000
N2   N   0.221897001424151   0.943566117448198   0.375000000000000   1.0000000
N2   N   0.555237559056905   0.944285446194932   0.375000000000000   1.0000000
N2   N   0.381112023265996   0.444532124228132   0.375000000000000   1.0000000
N2   N   0.889448651577004   0.945336746026326   0.375000000000000   1.0000000
N2   N   0.730086767628814   0.444532124228132   0.375000000000000   1.0000000
N2   N   0.222223301530273   0.611109037863943   0.875000000000000   1.0000000
N2   N   0.055556604901175   0.111107296174280   0.875000000000000   1.0000000
N2   N   0.555557510043680   0.611113473218587   0.875000000000000   1.0000000
N2   N   0.388890572642209   0.111114478617817   0.875000000000000   1.0000000
N2   N   0.888885521382239   0.611109427357734   0.875000000000000   1.0000000
N2   N   0.056433882551795   0.611664217309345   0.375000000000000   1.0000000
N2   N   0.722217357939969   0.111107296174280   0.875000000000000   1.0000000
N2   N   0.219075999782025   0.107641549411035   0.375000000000000   1.0000000
N2   N   0.387817918703985   0.612182081296115   0.375000000000000   1.0000000
N2   N   0.730086767628814   0.618887976733932   0.375000000000000   1.0000000
N2   N   0.555232216295505   0.107641549411035   0.375000000000000   1.0000000
N2   N   0.388890572642209   0.611109427357734   0.875000000000000   1.0000000
N2   N   0.888888888888886   0.111111111111114   0.375000000000000   1.0000000
N2   N   0.222222222222221   0.777777777777779   0.875000000000000   1.0000000
N2   N   0.055556604901175   0.277782642060294   0.875000000000000   1.0000000
N2   N   0.388886526781534   0.277777370158550   0.875000000000000   1.0000000
N2   N   0.555553351290209   0.777778449889489   0.875000000000000   1.0000000
N2   N   0.888891765265837   0.777778449889489   0.875000000000000   1.0000000
N2   N   0.722223681487735   0.277776318512307   0.875000000000000   1.0000000
N2   N   0.056433882551795   0.778102998576033   0.375000000000000   1.0000000
N2   N   0.388335782690775   0.778102998576033   0.375000000000000   1.0000000
N2   N   0.219475464876723   0.276404399105043   0.375000000000000   1.0000000
N2   N   0.723595600895056   0.780524535123242   0.375000000000000   1.0000000
N2   N   0.555467875771918   0.269913232371122   0.375000000000000   1.0000000
N2   N   0.889448651577004   0.277445238884049   0.375000000000000   1.0000000
N2   N   0.055556572799795   0.444446478932977   0.875000000000000   1.0000000
N2   N   0.222223301530273   0.944447597000071   0.875000000000000   1.0000000
N2   N   0.555553521066960   0.944443427200205   0.875000000000000   1.0000000
N2   N   0.388886526781534   0.444442489956320   0.875000000000000   1.0000000
N2   N   0.888892703825819   0.944443395098790   0.875000000000000   1.0000000
N2   N   0.055714553804954   0.944285446194932   0.375000000000000   1.0000000
N2   N   0.722222629841365   0.444442489956320   0.875000000000000   1.0000000
N2   N   0.388335782690775   0.943566117448198   0.375000000000000   1.0000000
N2   N   0.219075999782025   0.444767783704247   0.375000000000000   1.0000000
N2   N   0.221897001424151   0.611664217309345   0.375000000000000   1.0000000
N2   N   0.722554761116022   0.945336746026326   0.375000000000000   1.0000000
N2   N   0.892358450588901   0.444767783704247   0.375000000000000   1.0000000
N2   N   0.055552403000121   0.611109037863943   0.875000000000000   1.0000000
N2   N   0.222221550110646   0.111108234734184   0.875000000000000   1.0000000
N2   N   0.722222629841365   0.611113473218587   0.875000000000000   1.0000000
N2   N   0.555553351290209   0.111108234734184   0.875000000000000   1.0000000
N2   N   0.888888888888886   0.111111111111114   0.875000000000000   1.0000000
B2   B   0.109289757155126   0.054175592905561   0.375000000000000   1.0000000
B2   B   0.622238636864664   0.577810607062714   0.375000000000000   1.0000000
B2   B   0.444078823702314   0.053844841975587   0.375000000000000   1.0000000
B2   B   0.946155158024463   0.555921176297636   0.375000000000000   1.0000000
B2   B   0.778247342385585   0.055790337859492   0.375000000000000   1.0000000
B2   B   0.111110677855498   0.722222005594513   0.875000000000000   1.0000000
B2   B   0.444450055186788   0.722228108616894   0.875000000000000   1.0000000
B2   B   0.277757112843858   0.222210817166462   0.875000000000000   1.0000000
B2   B   0.777789182833403   0.722242887156142   0.875000000000000   1.0000000
B2   B   0.611120370989275   0.222210817166462   0.875000000000000   1.0000000
B2   B   0.944443448665679   0.222220230664986   0.875000000000000   1.0000000
B2   B   0.277499266473057   0.722500733527107   0.375000000000000   1.0000000
B2   B   0.109153116488005   0.221243224910696   0.375000000000000   1.0000000
B2   B   0.442747590550319   0.218828514434080   0.375000000000000   1.0000000
B2   B   0.611959722581820   0.728416274489779   0.375000000000000   1.0000000
B2   B   0.946155158024463   0.723567315060141   0.375000000000000   1.0000000
B2   B   0.778756775089219   0.221243224910696   0.375000000000000   1.0000000
B2   B   0.111109540952305   0.888890459047687   0.875000000000000   1.0000000
B2   B   0.444447584762025   0.888890459047687   0.875000000000000   1.0000000
B2   B   0.277757112843858   0.388879629010753   0.875000000000000   1.0000000
B2   B   0.611121799272925   0.388878200727139   0.875000000000000   1.0000000
B2   B   0.777784305764382   0.888901944861680   0.875000000000000   1.0000000
B2   B   0.944447881155491   0.388886775644150   0.875000000000000   1.0000000
B2   B   0.109289757155126   0.388447497582844   0.375000000000000   1.0000000
B2   B   0.277499266473057   0.888331866279435   0.375000000000000   1.0000000
B2   B   0.611552502417134   0.890710242844952   0.375000000000000   1.0000000
B2   B   0.422189392937186   0.377761363135307   0.375000000000000   1.0000000
B2   B   0.945824407094553   0.890710242844952   0.375000000000000   1.0000000
B2   B   0.783123218575092   0.388040277418379   0.375000000000000   1.0000000
B2   B   0.277771891383113   0.555549944813305   0.875000000000000   1.0000000
B2   B   0.111105561155423   0.055552118844552   0.875000000000000   1.0000000
B2   B   0.611121799272925   0.555576931879057   0.875000000000000   1.0000000
B2   B   0.444450055186788   0.055555279903101   0.875000000000000   1.0000000
B2   B   0.944444720096820   0.555549944813305   0.875000000000000   1.0000000
B2   B   0.111199856735606   0.555733046804413   0.375000000000000   1.0000000
B2   B   0.777779769334887   0.055556551334207   0.875000000000000   1.0000000
B2   B   0.276432684940072   0.053844841975587   0.375000000000000   1.0000000
B2   B   0.442747590550319   0.557252409449560   0.375000000000000   1.0000000
B2   B   0.781171485566018   0.557252409449560   0.375000000000000   1.0000000
B2   B   0.611552502417134   0.054175592905561   0.375000000000000   1.0000000
B2   B   0.444441592156392   0.555558407843615   0.875000000000000   1.0000000
B2   B   0.944209662140408   0.055790337859492   0.375000000000000   1.0000000
B2   B   0.277777994405644   0.722222005594513   0.875000000000000   1.0000000
B2   B   0.111098055138178   0.222215694235796   0.875000000000000   1.0000000
B2   B   0.444441592156392   0.222216517646248   0.875000000000000   1.0000000
B2   B   0.611120370989275   0.722242887156142   0.875000000000000   1.0000000
B2   B   0.944444720096820   0.722228108616894   0.875000000000000   1.0000000
B2   B   0.777784305764382   0.222215694235796   0.875000000000000   1.0000000
B2   B   0.111668133720722   0.722500733527107   0.375000000000000   1.0000000
B2   B   0.444078823702314   0.723567315060141   0.375000000000000   1.0000000
B2   B   0.271583725510462   0.216876781425313   0.375000000000000   1.0000000
B2   B   0.783123218575092   0.728416274489779   0.375000000000000   1.0000000
B2   B   0.611959722581820   0.216876781425313   0.375000000000000   1.0000000
B2   B   0.944209662140408   0.221752657614415   0.375000000000000   1.0000000
B2   B   0.111105561155423   0.388886775644150   0.875000000000000   1.0000000
B2   B   0.277777994405644   0.888889322144623   0.875000000000000   1.0000000
B2   B   0.611113224355772   0.888894438844470   0.875000000000000   1.0000000
B2   B   0.444423068120900   0.388878200727139   0.875000000000000   1.0000000
B2   B   0.944447881155491   0.888894438844470   0.875000000000000   1.0000000
B2   B   0.111199856735606   0.888800143264522   0.375000000000000   1.0000000
B2   B   0.777789182833403   0.388879629010753   0.875000000000000   1.0000000
B2   B   0.444266953195423   0.888800143264522   0.375000000000000   1.0000000
B2   B   0.271583725510462   0.388040277418379   0.375000000000000   1.0000000
B2   B   0.276432684940072   0.555921176297636   0.375000000000000   1.0000000
B2   B   0.622238636864664   0.377761363135307   0.375000000000000   1.0000000
B2   B   0.778756775089219   0.890846883511775   0.375000000000000   1.0000000
B2   B   0.945824407094553   0.388447497582844   0.375000000000000   1.0000000
B2   B   0.111109540952305   0.555552415237697   0.875000000000000   1.0000000
B2   B   0.277771891383113   0.055555279903101   0.875000000000000   1.0000000
B2   B   0.777783482353888   0.555558407843615   0.875000000000000   1.0000000
B2   B   0.611113224355772   0.055552118844552   0.875000000000000   1.0000000
B2   B   0.944443448665679   0.055556551334207   0.875000000000000   1.0000000
B2   B   0.055528772584396   0.111107685501413   0.125487295237667   1.0000000
B2   B   0.555549381809170   0.611182900812210   0.124832511552431   1.0000000
B2   B   0.388877340851617   0.111088015036882   0.125539967436965   1.0000000
B2   B   0.888911984963416   0.611122659148141   0.125539967436965   1.0000000
B2   B   0.722245579583582   0.111107685501413   0.125487295237667   1.0000000
B2   B   0.055570365563352   0.777790766882645   0.624456742463705   1.0000000
B2   B   0.388887067985851   0.777790766882645   0.624456742463705   1.0000000
B2   B   0.222145258297574   0.277739295815316   0.624616453070912   1.0000000
B2   B   0.722260704184647   0.777854741702703   0.624616453070912   1.0000000
B2   B   0.555549381809170   0.277699814330274   0.625167488447483   1.0000000
B2   B   0.888892314498595   0.277754420416234   0.624512704762190   1.0000000
B2   B   0.222222222222221   0.777777777777779   0.125403628091250   1.0000000
B2   B   0.055528772584396   0.277754420416234   0.125487295237667   1.0000000
B2   B   0.388817099187775   0.277699814330274   0.124832511552439   1.0000000
B2   B   0.555570771971664   0.777814109194178   0.125560570327747   1.0000000
B2   B   0.888910003888830   0.777814109194178   0.125560570327747   1.0000000
B2   B   0.722260704184647   0.277739295815316   0.125383546929302   1.0000000
B2   B   0.055555075137995   0.944444924861962   0.624405688192886   1.0000000
B2   B   0.388887067985851   0.944429634436798   0.624456742463705   1.0000000
B2   B   0.222185890805936   0.444429228028067   0.624439429672374   1.0000000
B2   B   0.555555555555557   0.444444444444443   0.626082736683734   1.0000000
B2   B   0.722245579583582   0.944471227415683   0.624512704762190   1.0000000
B2   B   0.888910003888830   0.444429228028067   0.624439429672374   1.0000000
B2   B   0.055555075137995   0.444443483609269   0.125594311807462   1.0000000
B2   B   0.222209233117419   0.944429634436798   0.125543257536138   1.0000000
B2   B   0.555556516390482   0.944444924861962   0.125594311807462   1.0000000
B2   B   0.388817099187790   0.444450618190823   0.124832511552439   1.0000000
B2   B   0.888892314498595   0.944471227415683   0.125487295237667   1.0000000
B2   B   0.722300185669740   0.444450618190823   0.124832511552439   1.0000000
B2   B   0.222209233117419   0.611112932014177   0.624456742463705   1.0000000
B2   B   0.055528772584396   0.111107685501413   0.624512704762190   1.0000000
B2   B   0.555549381809170   0.611182900812210   0.625167488447483   1.0000000
B2   B   0.388877340851617   0.111088015036882   0.624460032563091   1.0000000
B2   B   0.888911984963416   0.611122659148141   0.624460032563091   1.0000000
B2   B   0.055570365563352   0.611112932014177   0.125543257536138   1.0000000
B2   B   0.722245579583582   0.111107685501413   0.624512704762190   1.0000000
B2   B   0.222185890805936   0.111089996111113   0.125560570327747   1.0000000
B2   B   0.388877340851617   0.611122659148141   0.125539967436965   1.0000000
B2   B   0.722300185669740   0.611182900812210   0.124832511552439   1.0000000
B2   B   0.555570771971664   0.111089996111113   0.125560570327747   1.0000000
B2   B   0.388877340851617   0.611122659148141   0.624460032563091   1.0000000
B2   B   0.888888888888886   0.111111111111114   0.125366429458435   1.0000000
B2   B   0.222222222222221   0.777777777777779   0.624596371908835   1.0000000
B2   B   0.055528772584396   0.277754420416234   0.624512704762190   1.0000000
B2   B   0.388817099187790   0.277699814330274   0.625167488447483   1.0000000
B2   B   0.555570771971664   0.777814109194178   0.624439429672374   1.0000000
B2   B   0.888910003888830   0.777814109194178   0.624439429672374   1.0000000
B2   B   0.722260704184647   0.277739295815316   0.624616453070912   1.0000000
B2   B   0.055570365563352   0.777790766882645   0.125543257536138   1.0000000
B2   B   0.388887067985851   0.777790766882645   0.125543257536138   1.0000000
B2   B   0.222145258297574   0.277739295815316   0.125383546929302   1.0000000
B2   B   0.722260704184647   0.777854741702703   0.125383546929302   1.0000000
B2   B   0.555549381809170   0.277699814330274   0.124832511552439   1.0000000
B2   B   0.888892314498595   0.277754420416234   0.125487295237667   1.0000000
B2   B   0.055555075137995   0.444443483609269   0.624405688192886   1.0000000
B2   B   0.222209233117419   0.944429634436798   0.624456742463705   1.0000000
B2   B   0.555556516390482   0.944444924861962   0.624405688192886   1.0000000
B2   B   0.388817099187775   0.444450618190823   0.625167488447483   1.0000000
B2   B   0.888892314498595   0.944471227415683   0.624512704762190   1.0000000
B2   B   0.055555075137995   0.944444924861962   0.125594311807462   1.0000000
B2   B   0.722300185669740   0.444450618190823   0.625167488447483   1.0000000
B2   B   0.388887067985851   0.944429634436798   0.125543257536138   1.0000000
B2   B   0.222185890805936   0.444429228028067   0.125560570327747   1.0000000
B2   B   0.222209233117419   0.611112932014177   0.125543257536138   1.0000000
B2   B   0.555555555555557   0.444444444444443   0.123917263316216   1.0000000
B2   B   0.722245579583582   0.944471227415683   0.125487295237667   1.0000000
B2   B   0.888910003888830   0.444429228028067   0.125560570327747   1.0000000
B2   B   0.055570365563352   0.611112932014177   0.624456742463705   1.0000000
B2   B   0.222185890805936   0.111089996111113   0.624439429672374   1.0000000
B2   B   0.722300185669740   0.611182900812210   0.625167488447483   1.0000000
B2   B   0.555570771971664   0.111089996111113   0.624439429672374   1.0000000
B2   B   0.888888888888886   0.111111111111114   0.624633570541429   1.0000000


