data_1
_audit_creation_method   'vasp2cif'
_cell_length_a    17.52789999999977
_cell_length_b    17.52789999999977
_cell_length_c    15.0
_cell_angle_alpha    90.0
_cell_angle_beta    90.0
_cell_angle_gamma    119.99999999999916

_symmetry_space_group_name_H-M    'P 1'
loop_
_atom_site_label
_atom_site_type_symbol
_atom_site_fract_x
_atom_site_fract_y
_atom_site_fract_z
_atom_site_occupancy
O2   O   0.370716789972373   0.470736576851164   0.110929916626614   1.0000000
B2   B   0.907228536579366   0.953122514991185   0.110617668165448   1.0000000
B2   B   0.904988081755904   0.094834705204447   0.110714280645137   1.0000000
B2   B   0.904171150033979   0.237925839391163   0.110838538182777   1.0000000
B2   B   0.904703820408247   0.381567385677958   0.110729070215608   1.0000000
B2   B   0.907029428199721   0.525352462952777   0.110698385227579   1.0000000
B2   B   0.910327006537635   0.669200648506154   0.110775965177565   1.0000000
B2   B   0.910367000765016   0.812442412889855   0.110756635910572   1.0000000
B2   B   0.051787118918272   0.954555542754065   0.110673853867176   1.0000000
B2   B   0.048827880523150   0.095447715395378   0.110715473367653   1.0000000
B2   B   0.046611795368327   0.237197265909900   0.110869413505044   1.0000000
B2   B   0.046521370339899   0.380483363896645   0.110836881595069   1.0000000
B2   B   0.048668153706809   0.524228734911884   0.110672925455760   1.0000000
B2   B   0.051648233513567   0.668005081905862   0.110669484849486   1.0000000
B2   B   0.052574080840539   0.811712064202336   0.110701111425808   1.0000000
B2   B   0.194858146606436   0.954682803364799   0.110753711715987   1.0000000
B2   B   0.193762828690979   0.097707212331119   0.110734167066395   1.0000000
B2   B   0.189810384869419   0.237650124750519   0.110775246334766   1.0000000
B2   B   0.187593093540542   0.379184801544430   0.110873618252367   1.0000000
B2   B   0.189854620417033   0.522910008744854   0.110771653616388   1.0000000
B2   B   0.193693229679620   0.666621261780793   0.110693236756413   1.0000000
B2   B   0.194768470061803   0.810659757186485   0.110721231354232   1.0000000
B2   B   0.337109941909218   0.953895211841886   0.110816611508940   1.0000000
B2   B   0.336932180517892   0.099023337469454   0.110740025162929   1.0000000
B2   B   0.336082557943337   0.243301452906594   0.110587496053594   1.0000000
B2   B   0.329260926164733   0.381299946217422   0.110711714427259   1.0000000
B2   B   0.329431146985244   0.518838359731731   0.110805775159949   1.0000000
B2   B   0.336254924328691   0.663709896013554   0.110689352000976   1.0000000
B2   B   0.336983794915360   0.808701751872765   0.110735595174091   1.0000000
B2   B   0.478812637463922   0.951673309567920   0.110830391053387   1.0000000
B2   B   0.478664390898436   0.098363986705094   0.110774398339161   1.0000000
B2   B   0.478599364266937   0.245766558031145   0.110574276032209   1.0000000
B2   B   0.477527212744883   0.395646674607942   0.110512909568464   1.0000000
B2   B   0.477759141563649   0.653283579110792   0.110686776381234   1.0000000
B2   B   0.478886957863136   0.804339412262435   0.110745899089838   1.0000000
B2   B   0.620389622589583   0.950844893419508   0.110708900735935   1.0000000
B2   B   0.620068652541764   0.095877700474516   0.110772179688699   1.0000000
B2   B   0.620009101110357   0.241004911217113   0.110657411142464   1.0000000
B2   B   0.620559944822881   0.386031477890896   0.110616653909688   1.0000000
B2   B   0.625522116503377   0.531583569970027   0.110881239936248   1.0000000
B2   B   0.625625736766078   0.665380971511267   0.110953513714573   1.0000000
B2   B   0.620840284254765   0.806217164915987   0.110725290212516   1.0000000
B2   B   0.762950411031903   0.951515055148279   0.110632933013154   1.0000000
B2   B   0.762114536843667   0.094946552983480   0.110739906600868   1.0000000
B2   B   0.761873817873392   0.238915331430546   0.110774891848849   1.0000000
B2   B   0.762581094727814   0.382946456078789   0.110682810339600   1.0000000
B2   B   0.765500736466320   0.526971918784435   0.110809885105687   1.0000000
B2   B   0.770532895938943   0.670958325004213   0.111040779646484   1.0000000
B2   B   0.765652510094863   0.810094465677855   0.110807743453582   1.0000000
N2   N   0.956741530420811   0.907206719410760   0.110613133507020   1.0000000
N2   N   0.953699382313005   0.048049729591168   0.110622387708162   1.0000000
N2   N   0.951707584404367   0.189993616192929   0.110819292082986   1.0000000
N2   N   0.951607077051487   0.333240836515811   0.110802011199403   1.0000000
N2   N   0.953532212904974   0.476911505185392   0.110651280334684   1.0000000
N2   N   0.956613834378380   0.620687673288577   0.110683893657124   1.0000000
N2   N   0.957695552940715   0.764452712987523   0.110717923984947   1.0000000
N2   N   0.099766663903035   0.907056537136821   0.110661912748797   1.0000000
N2   N   0.098439677359715   0.049621626875947   0.110699352014395   1.0000000
N2   N   0.095004401358954   0.190203134938189   0.110822801007959   1.0000000
N2   N   0.093210066750628   0.332147024701096   0.110900347221819   1.0000000
N2   N   0.094989794936780   0.475762884215813   0.110743256476141   1.0000000
N2   N   0.098320664116162   0.619576308326440   0.110634911459318   1.0000000
N2   N   0.099673594683357   0.763420572392574   0.110669245788289   1.0000000
N2   N   0.242084411448795   0.906302293218334   0.110762686950332   1.0000000
N2   N   0.241817753572220   0.050369391478841   0.110757975769204   1.0000000
N2   N   0.240447886969928   0.193178338043219   0.110694776969683   1.0000000
N2   N   0.235169406795711   0.332000393568910   0.110759739979967   1.0000000
N2   N   0.235269741891568   0.473966749356672   0.110814160935823   1.0000000
N2   N   0.240518828847352   0.618001307695852   0.110692896773505   1.0000000
N2   N   0.241790254194677   0.762023278961516   0.110690079061032   1.0000000
N2   N   0.383867227104064   0.904583318778103   0.110807849666151   1.0000000
N2   N   0.383771368155448   0.050077713203175   0.110808663821760   1.0000000
N2   N   0.383588427652789   0.195461028900730   0.110592717847910   1.0000000
N2   N   0.382267910768440   0.339929440535449   0.110477350066448   1.0000000
N2   N   0.382465042570779   0.613317951323235   0.110674658556969   1.0000000
N2   N   0.383777550835463   0.759142861332607   0.110700754804899   1.0000000
N2   N   0.525349076053222   0.901523845032985   0.110759782421593   1.0000000
N2   N   0.525147862807705   0.048290032294904   0.110806213967141   1.0000000
N2   N   0.525027918385019   0.195105823663918   0.110628884894315   1.0000000
N2   N   0.525228410188524   0.343571232789661   0.110499497395917   1.0000000
N2   N   0.532190629764242   0.495946731398377   0.110541891286320   1.0000000
N2   N   0.532335519174958   0.607644446586731   0.110645953541892   1.0000000
N2   N   0.525477549812361   0.753183414113354   0.110700324284674   1.0000000
N2   N   0.667522139880578   0.902486686833742   0.110637945101850   1.0000000
N2   N   0.666989700461439   0.046915448012864   0.110723569703994   1.0000000
N2   N   0.666762643463768   0.191723774440972   0.110733288955960   1.0000000
N2   N   0.667175814821404   0.336473528401990   0.110607863851910   1.0000000
N2   N   0.670044118118688   0.480586492138675   0.110754017812298   1.0000000
N2   N   0.677569842788703   0.624452279946307   0.111170622887726   1.0000000
N2   N   0.670184968407580   0.760965118327742   0.110852981930688   1.0000000
N2   N   0.811938076533462   0.905176999465315   0.110619257092143   1.0000000
N2   N   0.809778291114528   0.047039761743408   0.110650633992110   1.0000000
N2   N   0.809086401394968   0.190495868229259   0.110795013576199   1.0000000
N2   N   0.809505295811041   0.334359298517204   0.110713019188800   1.0000000
N2   N   0.811743367903768   0.478174728440437   0.110703243252537   1.0000000
N2   N   0.815842194242138   0.621948019895967   0.110893468932244   1.0000000
N2   N   0.815875451993487   0.765292964691104   0.110896767128746   1.0000000


