data_1
_audit_creation_method   'vasp2cif'
_cell_length_a    17.52789999999977
_cell_length_b    17.52789999999977
_cell_length_c    15.0
_cell_angle_alpha    90.0
_cell_angle_beta    90.0
_cell_angle_gamma    119.99999999999916

_symmetry_space_group_name_H-M    'P 1'
loop_
_atom_site_label
_atom_site_type_symbol
_atom_site_fract_x
_atom_site_fract_y
_atom_site_fract_z
_atom_site_occupancy
B2   B   0.904606410559835   0.952251137302263   0.111030921639296   1.0000000
B2   B   0.904780263913893   0.095221482778107   0.111044080000471   1.0000000
B2   B   0.904818160956736   0.238128108268826   0.111043768581068   1.0000000
B2   B   0.904776038903750   0.380979599185391   0.111024702820873   1.0000000
B2   B   0.904602228013157   0.523765895799626   0.111023501958781   1.0000000
B2   B   0.904611085008695   0.666582104902468   0.111043958609211   1.0000000
B2   B   0.904612606694597   0.809466397531688   0.111040956506685   1.0000000
B2   B   0.047586176953476   0.952415546411520   0.111029578766879   1.0000000
B2   B   0.047750578039738   0.095395309912171   0.111030921166295   1.0000000
B2   B   0.047793164021974   0.238220359553256   0.111025100420139   1.0000000
B2   B   0.047781630804631   0.380989062775742   0.111036215279673   1.0000000
B2   B   0.047748433083930   0.523771617416464   0.111028187961300   1.0000000
B2   B   0.047597014774812   0.666611719561120   0.111034053925599   1.0000000
B2   B   0.047579478497877   0.809510549695291   0.111025170538350   1.0000000
B2   B   0.190491199997708   0.952422284595126   0.111025169012353   1.0000000
B2   B   0.190535303504310   0.095389106013409   0.111040952382688   1.0000000
B2   B   0.190977685026990   0.238653643126180   0.111034115381073   1.0000000
B2   B   0.190777428385820   0.381099018539764   0.111022431188702   1.0000000
B2   B   0.190970841080966   0.523754760798177   0.111041293662260   1.0000000
B2   B   0.190531921663639   0.666581718774109   0.111047699964328   1.0000000
B2   B   0.190500480905527   0.809501213635471   0.111022061843449   1.0000000
B2   B   0.333390016143878   0.952404709059191   0.111034056339597   1.0000000
B2   B   0.333419609074531   0.095390654911307   0.111043954232211   1.0000000
B2   B   0.333454044801975   0.238347867698933   0.111052942859231   1.0000000
B2   B   0.334357509188418   0.381826839106193   0.111027242761074   1.0000000
B2   B   0.334358989030566   0.523968415843514   0.111035802260693   1.0000000
B2   B   0.333449657136082   0.666552045637918   0.111042948953935   1.0000000
B2   B   0.333419934545890   0.809469707179355   0.111047703497331   1.0000000
B2   B   0.476230070002537   0.952253147846074   0.111028193272302   1.0000000
B2   B   0.476235845706371   0.095399594662841   0.111023510651781   1.0000000
B2   B   0.476245487069133   0.238654268652103   0.111042447817710   1.0000000
B2   B   0.476036358847347   0.381830861368742   0.111044984157511   1.0000000
B2   B   0.476033368589482   0.665642868309436   0.111035802774700   1.0000000
B2   B   0.476246954991822   0.809030845987034   0.111041299399260   1.0000000
B2   B   0.619012676196261   0.952220053612370   0.111036217386674   1.0000000
B2   B   0.619022071162608   0.095225648378251   0.111024703906873   1.0000000
B2   B   0.619017493057098   0.238220344409468   0.111026975193502   1.0000000
B2   B   0.618900949047557   0.381100785161444   0.111028822717864   1.0000000
B2   B   0.618170707601257   0.523965308355655   0.111044978899509   1.0000000
B2   B   0.618174810348801   0.665644214527579   0.111027242474072   1.0000000
B2   B   0.618902724620234   0.809224341017179   0.111022426840699   1.0000000
B2   B   0.761781380974743   0.952208555505025   0.111025102646134   1.0000000
B2   B   0.761873587492174   0.095183515577262   0.111043770984066   1.0000000
B2   B   0.761875047842505   0.238126657337492   0.111055347169662   1.0000000
B2   B   0.761781477974533   0.380984262373903   0.111026966786502   1.0000000
B2   B   0.761347483523895   0.523756195737870   0.111042439853713   1.0000000
B2   B   0.761653791072065   0.666547635743022   0.111052951487231   1.0000000
B2   B   0.761348028297822   0.809024031655010   0.111034117855069   1.0000000
C2   C   0.476202460476766   0.523799195070229   0.111068408757558   1.0000000
N2   N   0.952300913938977   0.904724365468904   0.111005481385500   1.0000000
N2   N   0.952397798308404   0.047603919001596   0.111007119874771   1.0000000
N2   N   0.952479309270367   0.190512735964392   0.111007157112576   1.0000000
N2   N   0.952475499993554   0.333394427494540   0.111008449328127   1.0000000
N2   N   0.952396473577201   0.476212265481567   0.110986855764149   1.0000000
N2   N   0.952301083389045   0.619002107492176   0.111006821410730   1.0000000
N2   N   0.952284354897510   0.761860192488566   0.111008214892100   1.0000000
N2   N   0.095220482862492   0.904781269605510   0.110992793023814   1.0000000
N2   N   0.095277339969098   0.047700804876023   0.111005487882497   1.0000000
N2   N   0.095593160997100   0.190795675119246   0.110999541593494   1.0000000
N2   N   0.095478572715968   0.333451127285414   0.110998601754089   1.0000000
N2   N   0.095588283728073   0.476216119372800   0.111002676928748   1.0000000
N2   N   0.095274307333859   0.619001635082686   0.111007610249792   1.0000000
N2   N   0.095226929590624   0.761879589405363   0.110995633530588   1.0000000
N2   N   0.238122122755638   0.904774781167375   0.110995634422589   1.0000000
N2   N   0.238141536888438   0.047717414066488   0.111008207469102   1.0000000
N2   N   0.238217132365812   0.190685685819563   0.111013338079689   1.0000000
N2   N   0.238957557995504   0.334197574184490   0.111000481357998   1.0000000
N2   N   0.238955863068412   0.476187857604652   0.111004541773068   1.0000000
N2   N   0.238212143102606   0.618964791558105   0.111013737108952   1.0000000
N2   N   0.238144038022584   0.761857596172411   0.111004003246871   1.0000000
N2   N   0.381000036020314   0.904727318449141   0.111007614399795   1.0000000
N2   N   0.380999619694821   0.047700667530954   0.111006829158730   1.0000000
N2   N   0.381035160637701   0.190687453568535   0.111015257369777   1.0000000
N2   N   0.381025269543871   0.333483096552299   0.111019868871271   1.0000000
N2   N   0.383469598158254   0.477449377967444   0.110975936696400   1.0000000
N2   N   0.381022988312112   0.618978809646889   0.111014507723200   1.0000000
N2   N   0.381036946930892   0.761789563777393   0.111013741729953   1.0000000
N2   N   0.523785612855200   0.904413311787924   0.111002690706747   1.0000000
N2   N   0.523789392867433   0.047605188182802   0.110986856209155   1.0000000
N2   N   0.523785844869486   0.190801322440041   0.111001348538303   1.0000000
N2   N   0.523813485957928   0.334199765544629   0.111013572591491   1.0000000
N2   N   0.522554157213024   0.477447439411981   0.110982992046040   1.0000000
N2   N   0.522552281315557   0.616532083980746   0.110975938274401   1.0000000
N2   N   0.523813925008352   0.761045993259586   0.111004538957067   1.0000000
N2   N   0.666550663326582   0.904523174757032   0.110998599541090   1.0000000
N2   N   0.666607242236459   0.047526154255451   0.111008447860132   1.0000000
N2   N   0.666609600758961   0.190510181915853   0.111011101404146   1.0000000
N2   N   0.666551178269644   0.333450632279358   0.110995596058006   1.0000000
N2   N   0.665801898587372   0.476188230052069   0.111013552192491   1.0000000
N2   N   0.666518534091701   0.618976425001128   0.111019871506269   1.0000000
N2   N   0.665804092269507   0.761044199472495   0.111000474226999   1.0000000
N2   N   0.809206037396757   0.904408554036903   0.110999541969499   1.0000000
N2   N   0.809488989312610   0.047522399802629   0.111007166799575   1.0000000
N2   N   0.809523370897812   0.190478283794187   0.111014317844344   1.0000000
N2   N   0.809491556192144   0.333392084402042   0.111011095464150   1.0000000
N2   N   0.809200569114961   0.476215909580518   0.111001328027300   1.0000000
N2   N   0.809314267798464   0.618966543409300   0.111015272722780   1.0000000
N2   N   0.809315976274437   0.761784559418188   0.111013349375684   1.0000000


