data_1
_audit_creation_method   'vasp2cif'
_cell_length_a    17.52789999999977
_cell_length_b    17.52789999999977
_cell_length_c    15.0
_cell_angle_alpha    90.0
_cell_angle_beta    90.0
_cell_angle_gamma    119.99999999999916

_symmetry_space_group_name_H-M    'P 1'
loop_
_atom_site_label
_atom_site_type_symbol
_atom_site_fract_x
_atom_site_fract_y
_atom_site_fract_z
_atom_site_occupancy
B2   B   0.905702363790659   0.953441778351333   0.118824852951774   1.0000000
B2   B   0.904383906465937   0.095765708253989   0.118657496228425   1.0000000
B2   B   0.904013249815066   0.238610769505115   0.117290307823375   1.0000000
B2   B   0.904226172657241   0.381492113610717   0.115790359447597   1.0000000
B2   B   0.905372420991144   0.524463472756665   0.114706634869237   1.0000000
B2   B   0.907042952016588   0.667783313239868   0.115288872668477   1.0000000
B2   B   0.907520555927271   0.811430008101282   0.117364752085228   1.0000000
B2   B   0.048092561585873   0.952055484132195   0.119178513996182   1.0000000
B2   B   0.046705253773980   0.094441710558348   0.118814038456010   1.0000000
B2   B   0.046397640421677   0.237722680831148   0.116139442268682   1.0000000
B2   B   0.046909469121019   0.380936884817189   0.113790055594691   1.0000000
B2   B   0.048114800086336   0.523779550339927   0.114035044827946   1.0000000
B2   B   0.048943779971142   0.666634597075230   0.115825565132735   1.0000000
B2   B   0.048975694187414   0.809511331661991   0.117835421846248   1.0000000
B2   B   0.190637045834360   0.951174316073774   0.117822151584692   1.0000000
B2   B   0.188736595541647   0.092647955992632   0.117345442735947   1.0000000
B2   B   0.187485324640550   0.235229259702361   0.113492010476806   1.0000000
B2   B   0.188677767361767   0.379777569175239   0.107759109824686   1.0000000
B2   B   0.190994570159827   0.523161813402463   0.107186074121304   1.0000000
B2   B   0.191552479572312   0.666056388144421   0.111098611574894   1.0000000
B2   B   0.191370011059700   0.808774764296505   0.115535676997316   1.0000000
B2   B   0.333508858134464   0.951203663766476   0.115811495334668   1.0000000
B2   B   0.332370143422536   0.093101938408313   0.115271820591262   1.0000000
B2   B   0.328565392324219   0.232229280291658   0.110139940462844   1.0000000
B2   B   0.327139152594669   0.375364186577838   0.099980689369772   1.0000000
B2   B   0.333850507018617   0.522181692657305   0.095548300890765   1.0000000
B2   B   0.334499952332981   0.665627862755495   0.102507212671092   1.0000000
B2   B   0.334083622183579   0.808589152596119   0.111105387253453   1.0000000
B2   B   0.476357169271211   0.952031299679395   0.114033239373933   1.0000000
B2   B   0.475685415772488   0.094775736721524   0.114696660917583   1.0000000
B2   B   0.474274132237523   0.236682164618357   0.108223143319439   1.0000000
B2   B   0.465455823662581   0.370120884310249   0.096421750825731   1.0000000
B2   B   0.477963434419947   0.666300480070863   0.095567864606685   1.0000000
B2   B   0.476975796552146   0.809150050376576   0.107220691389183   1.0000000
B2   B   0.619209389080105   0.953239152369503   0.113808896584885   1.0000000
B2   B   0.618655175900658   0.095928534950507   0.115786886583737   1.0000000
B2   B   0.618145884261789   0.238925148752166   0.111838369745189   1.0000000
B2   B   0.617804874662648   0.382344610291726   0.102894059000946   1.0000000
B2   B   0.630020444440192   0.534709001429154   0.096438338885453   1.0000000
B2   B   0.624801915889600   0.673040266004180   0.100006356926527   1.0000000
B2   B   0.620364716212793   0.811473106840430   0.107794608669430   1.0000000
B2   B   0.762424744401210   0.953751932573760   0.116168962967329   1.0000000
B2   B   0.761545144033560   0.096144990197725   0.117292449641204   1.0000000
B2   B   0.761187884559052   0.238975220122205   0.115869634204466   1.0000000
B2   B   0.761222906172410   0.381998110152517   0.111846431229668   1.0000000
B2   B   0.763457878960496   0.525871101650156   0.108233256327907   1.0000000
B2   B   0.767924430107072   0.671596123168408   0.110159813492483   1.0000000
B2   B   0.764925020049019   0.812666537929722   0.113516717924032   1.0000000
N2   N   0.953434817860676   0.905730545566388   0.119081138698110   1.0000000
N2   N   0.952100605096677   0.048050180272242   0.119375011221697   1.0000000
N2   N   0.951564465541069   0.190830503449225   0.117957912808673   1.0000000
N2   N   0.951707020100831   0.333799831895507   0.116291034660451   1.0000000
N2   N   0.952503049181698   0.476605651919153   0.115549831550475   1.0000000
N2   N   0.953481635921360   0.619420303466437   0.115877190570278   1.0000000
N2   N   0.953862249740852   0.762571993282406   0.117434829350485   1.0000000
N2   N   0.095760860937058   0.904389421695731   0.118574564103101   1.0000000
N2   N   0.094417674897917   0.046711915787871   0.119067468382597   1.0000000
N2   N   0.093481011654843   0.189361499674118   0.116993759316594   1.0000000
N2   N   0.094201187146613   0.332971454046578   0.112893686870959   1.0000000
N2   N   0.095722070608726   0.476057888107205   0.111931754793792   1.0000000
N2   N   0.096282169873037   0.618807348168189   0.114012072184578   1.0000000
N2   N   0.096267265353575   0.761598804822310   0.116699904255767   1.0000000
N2   N   0.238541014800452   0.903875973628068   0.116686758551317   1.0000000
N2   N   0.237573497909959   0.046285192945484   0.117415708822085   1.0000000
N2   N   0.235061209948074   0.187408976026563   0.114476468666333   1.0000000
N2   N   0.234427026549491   0.330217006062149   0.107692204392999   1.0000000
N2   N   0.238722575070219   0.475083038514943   0.103280268341597   1.0000000
N2   N   0.239367327584013   0.618260159156881   0.106431033190445   1.0000000
N2   N   0.239031185747948   0.761109615449832   0.112506149993600   1.0000000
N2   N   0.381337177979694   0.903859876181711   0.114001055590375   1.0000000
N2   N   0.380723767015483   0.046660617431066   0.115857148529224   1.0000000
N2   N   0.379448044294912   0.188652550770121   0.111438092231999   1.0000000
N2   N   0.374366412725750   0.327163913079996   0.102842390246946   1.0000000
N2   N   0.377408275771311   0.469374082568974   0.090082727669552   1.0000000
N2   N   0.382724546109596   0.617411617694182   0.095175356819682   1.0000000
N2   N   0.381875694620667   0.760766583827366   0.106450888434950   1.0000000
N2   N   0.524087603587956   0.904425326518675   0.111953062065515   1.0000000
N2   N   0.523546123351285   0.047645888354811   0.115541541729239   1.0000000
N2   N   0.522873825092295   0.190828423907842   0.111820029554633   1.0000000
N2   N   0.521535753705949   0.334120130048102   0.100922893281115   1.0000000
N2   N   0.530794184029680   0.622777168728623   0.090110670332151   1.0000000
N2   N   0.525059758002837   0.761433803389790   0.103316236914100   1.0000000
N2   N   0.667169333669954   0.905949917950910   0.112928406914285   1.0000000
N2   N   0.666346676603584   0.048445532198031   0.116296928758750   1.0000000
N2   N   0.665794731764079   0.191603193117039   0.115060364681623   1.0000000
N2   N   0.665095046112018   0.335059771331160   0.108792505174888   1.0000000
N2   N   0.666019231695008   0.478617066644517   0.100934643659555   1.0000000
N2   N   0.672986224792859   0.625793344087685   0.102866038325642   1.0000000
N2   N   0.669942907743973   0.765741840581739   0.107720913323273   1.0000000
N2   N   0.810784522162553   0.906673477466493   0.117025008947023   1.0000000
N2   N   0.809313706872800   0.048584200657653   0.117969406846147   1.0000000
N2   N   0.808774872669711   0.191372852607553   0.117393381069529   1.0000000
N2   N   0.808546578327215   0.334355644335202   0.115067259522623   1.0000000
N2   N   0.809315905203305   0.477279694868140   0.111829000622092   1.0000000
N2   N   0.811493129524687   0.620695574743349   0.111454107677848   1.0000000
N2   N   0.812729571978327   0.765078968563363   0.114495168542464   1.0000000
As2   As   0.493974121858353   0.506269855816894   0.063708125500948   1.0000000


