data_1
_audit_creation_method   'vasp2cif'
_cell_length_a    17.52789999999977
_cell_length_b    17.52789999999977
_cell_length_c    15.0
_cell_angle_alpha    90.0
_cell_angle_beta    90.0
_cell_angle_gamma    119.99999999999916

_symmetry_space_group_name_H-M    'P 1'
loop_
_atom_site_label
_atom_site_type_symbol
_atom_site_fract_x
_atom_site_fract_y
_atom_site_fract_z
_atom_site_occupancy
B2   B   0.904337507179444   0.952076909190926   0.115914361299531   1.0000000
B2   B   0.904662195258756   0.095061523694803   0.115065796544287   1.0000000
B2   B   0.904841985430797   0.237992648041286   0.114520772665786   1.0000000
B2   B   0.904888786719364   0.380841390442829   0.115328066889830   1.0000000
B2   B   0.904930412139098   0.523731808940344   0.116054681109046   1.0000000
B2   B   0.904949732112945   0.666639538072437   0.115632209338768   1.0000000
B2   B   0.904591013704817   0.809464536474105   0.115104992357359   1.0000000
B2   B   0.047416341134257   0.952339244524242   0.115388276458679   1.0000000
B2   B   0.047563106406566   0.095228205007894   0.115234410843772   1.0000000
B2   B   0.047760378847245   0.238218449419480   0.114051018886605   1.0000000
B2   B   0.047632926803693   0.381021283246447   0.114193710472568   1.0000000
B2   B   0.047460425238399   0.523823818389378   0.114915093449049   1.0000000
B2   B   0.047396303213410   0.666708405813767   0.114480417835889   1.0000000
B2   B   0.047452670749658   0.809569990292934   0.114629521848256   1.0000000
B2   B   0.190248841373838   0.952364647834671   0.113679781663669   1.0000000
B2   B   0.190326885081942   0.095154036054901   0.113242893938781   1.0000000
B2   B   0.190617913127731   0.238277879775027   0.111215364323590   1.0000000
B2   B   0.190651983076557   0.381707446111800   0.110492114406234   1.0000000
B2   B   0.190151278917917   0.524120906979711   0.114954613006306   1.0000000
B2   B   0.189768551700014   0.666839565450254   0.115186927032298   1.0000000
B2   B   0.190129693382622   0.809677516352867   0.113558283331373   1.0000000
B2   B   0.333102256856046   0.952436340842883   0.113768633890075   1.0000000
B2   B   0.333170703924744   0.095052441722679   0.112851917072421   1.0000000
B2   B   0.333051515357565   0.237551492244352   0.105976760933331   1.0000000
B2   B   0.332740646424300   0.380191616087923   0.097203374127186   1.0000000
B2   B   0.334064358050984   0.528392145948774   0.108942321667085   1.0000000
B2   B   0.332858227272415   0.666743717389429   0.121170774746143   1.0000000
B2   B   0.332827563650684   0.809733460686408   0.116147762824952   1.0000000
B2   B   0.475917036316485   0.952694969429066   0.115226420764873   1.0000000
B2   B   0.476121386476912   0.095055224912874   0.114513616833423   1.0000000
B2   B   0.476126109141121   0.237216089646613   0.111817692072243   1.0000000
B2   B   0.475815640343025   0.377721750516125   0.096041627037768   1.0000000
B2   B   0.475098382069376   0.809447329441492   0.118685489368502   1.0000000
B2   B   0.618629897074109   0.952058859522326   0.114777573444622   1.0000000
B2   B   0.619066382042163   0.095055534865866   0.114674545861911   1.0000000
B2   B   0.619211773620881   0.237754180756659   0.115099400539658   1.0000000
B2   B   0.619482625750392   0.380408660089188   0.111129173426121   1.0000000
B2   B   0.621631256610924   0.523973748650343   0.096900007645618   1.0000000
B2   B   0.621488945740818   0.667497339523050   0.086938088027923   1.0000000
B2   B   0.617049185176784   0.807897088396563   0.110988611107510   1.0000000
B2   B   0.761368726732689   0.951945448248019   0.114068695991621   1.0000000
B2   B   0.761802643124319   0.095005694159527   0.114258416302315   1.0000000
B2   B   0.762055792540586   0.237900941239168   0.114939360597799   1.0000000
B2   B   0.762199720279006   0.380719449427409   0.115831358048688   1.0000000
B2   B   0.762488078454287   0.523659727709184   0.114139808939303   1.0000000
B2   B   0.762634845694897   0.666592978531886   0.109626825247100   1.0000000
B2   B   0.761106621401880   0.808989320981192   0.110959322372929   1.0000000
N2   N   0.952215407338333   0.904662406452679   0.115999704984021   1.0000000
N2   N   0.952377888099698   0.047516696902649   0.115867970307443   1.0000000
N2   N   0.952582574455633   0.190463633402898   0.114672428691054   1.0000000
N2   N   0.952431892383564   0.333219992963954   0.114684260592835   1.0000000
N2   N   0.952255002846198   0.476022459178328   0.115511767574666   1.0000000
N2   N   0.952218419604785   0.618910649718360   0.115683351502681   1.0000000
N2   N   0.952186093689165   0.761821946506461   0.115453032831686   1.0000000
N2   N   0.095037970800842   0.904836188372357   0.114478889806310   1.0000000
N2   N   0.095248539992701   0.047711888803206   0.115082860724959   1.0000000
N2   N   0.095590879719677   0.190717384394287   0.114184724445766   1.0000000
N2   N   0.095487174170118   0.333474901871019   0.113113837399675   1.0000000
N2   N   0.094859166082111   0.476052635408226   0.114699577998547   1.0000000
N2   N   0.094570557611828   0.618972001087420   0.114216700840249   1.0000000
N2   N   0.094860009444038   0.761953027867300   0.113786147549298   1.0000000
N2   N   0.237797359065272   0.904973412770442   0.113234875957899   1.0000000
N2   N   0.237999926471466   0.047757684844926   0.113274894987112   1.0000000
N2   N   0.238236029781244   0.190679043924228   0.110426663235392   1.0000000
N2   N   0.238795448744388   0.333970653472299   0.107933526964109   1.0000000
N2   N   0.237779451581583   0.476282873229486   0.111245299977013   1.0000000
N2   N   0.236681588263855   0.619104689535576   0.117327036585168   1.0000000
N2   N   0.237388436838018   0.762106529442594   0.114437221833644   1.0000000
N2   N   0.380567990668826   0.905187713580532   0.114543782945585   1.0000000
N2   N   0.380860372297377   0.047828215626481   0.113916999344961   1.0000000
N2   N   0.380956756479101   0.190516552233819   0.110528338906520   1.0000000
N2   N   0.380951170313800   0.333022862415554   0.096187242263266   1.0000000
N2   N   0.379934759297086   0.477122156554385   0.090311481328778   1.0000000
N2   N   0.376009753152456   0.617987187975004   0.123972875165882   1.0000000
N2   N   0.379615361189596   0.762326119766613   0.119930481422091   1.0000000
N2   N   0.523488436627314   0.905764683556634   0.116447913235233   1.0000000
N2   N   0.523825981564788   0.047986354240201   0.114601677979333   1.0000000
N2   N   0.523901297697125   0.190342146807542   0.114756700100492   1.0000000
N2   N   0.523990084686191   0.332513579852924   0.108441763299882   1.0000000
N2   N   0.525913744705476   0.472466368058743   0.083412074095606   1.0000000
N2   N   0.530920912485156   0.621193299561423   0.057529037980326   1.0000000
N2   N   0.525752531334973   0.768748082425369   0.119270241243132   1.0000000
N2   N   0.666530532043622   0.904666211156838   0.113216509521954   1.0000000
N2   N   0.666717333238153   0.047678847399742   0.114323216799783   1.0000000
N2   N   0.666822122627921   0.190442392130073   0.115022074318181   1.0000000
N2   N   0.666836170846999   0.333096637009368   0.115047887167197   1.0000000
N2   N   0.667012739410972   0.475656634552519   0.109542355694428   1.0000000
N2   N   0.667876133595087   0.618586442638009   0.097940134487080   1.0000000
N2   N   0.666105563683170   0.760895172046026   0.103351998863057   1.0000000
N2   N   0.809161873251239   0.904300735528788   0.114950350816716   1.0000000
N2   N   0.809513206955252   0.047472763816282   0.114487877331607   1.0000000
N2   N   0.809661425570822   0.190402736490799   0.114349851203059   1.0000000
N2   N   0.809644461010509   0.333181807505053   0.115565531217563   1.0000000
N2   N   0.809625603484208   0.475931262655816   0.116399292310821   1.0000000
N2   N   0.809698320884968   0.618718526528992   0.114603819448425   1.0000000
N2   N   0.809290531853488   0.761556977759054   0.112514605067957   1.0000000
S2   S   0.477218414244363   0.524057199012637   0.038934071380747   1.0000000


