data_1
_audit_creation_method   'vasp2cif'
_cell_length_a    14.93631414619966
_cell_length_b    14.936314146199727
_cell_length_c    13.341276283792837
_cell_angle_alpha    90.0
_cell_angle_beta    90.0
_cell_angle_gamma    119.99999999999984

_symmetry_space_group_name_H-M    'P 1'
loop_
_atom_site_label
_atom_site_type_symbol
_atom_site_fract_x
_atom_site_fract_y
_atom_site_fract_z
_atom_site_occupancy
S2   S   0.406067930600007   0.369700631966701   0.375000000000000   1.0000000
S2   S   0.552662109393773   0.442997721363551   0.375000000000000   1.0000000
N2   N   0.111716807011331   0.055886782390128   0.125169300847471   1.0000000
N2   N   0.611841919985251   0.556009171543798   0.125016488404924   1.0000000
N2   N   0.444996790653328   0.055828627830708   0.125660708155747   1.0000000
N2   N   0.944947515618947   0.555777144490828   0.126255276706082   1.0000000
N2   N   0.778341681596256   0.055837507464822   0.124932659236625   1.0000000
N2   N   0.111574737752416   0.722454035542871   0.625041014077690   1.0000000
N2   N   0.444996790653328   0.722501496155937   0.624339291844236   1.0000000
N2   N   0.278442360231107   0.222565863011751   0.624355080991732   1.0000000
N2   N   0.778370166114560   0.722628446887852   0.623434248625222   1.0000000
N2   N   0.611728985239824   0.222456913997059   0.623819428706753   1.0000000
N2   N   0.945046499670585   0.222492200874929   0.625208862448373   1.0000000
N2   N   0.278290120236143   0.722472481188973   0.124772263710470   1.0000000
N2   N   0.111743070937790   0.222538202135599   0.125186782564021   1.0000000
N2   N   0.445124298418974   0.222574244748835   0.125785409995489   1.0000000
N2   N   0.611728985239824   0.722605404576100   0.126180571293151   1.0000000
N2   N   0.944947515618947   0.722503704461409   0.126255276706082   1.0000000
N2   N   0.778377811077208   0.222435967350552   0.125502334633954   1.0000000
N2   N   0.111641639922606   0.889171808078151   0.624956385351597   1.0000000
N2   N   0.444975248625884   0.889154290979489   0.624935170188939   1.0000000
N2   N   0.278442360231093   0.389209830552644   0.624355080991732   1.0000000
N2   N   0.611841919985252   0.389166081774801   0.624983511595051   1.0000000
N2   N   0.778377811077208   0.889275177060008   0.624497665366069   1.0000000
N2   N   0.945027287094919   0.389109118823471   0.624419690687992   1.0000000
N2   N   0.111716807011331   0.389163357954525   0.125169300847471   1.0000000
N2   N   0.278290120236175   0.889150972380454   0.124772263710473   1.0000000
N2   N   0.611668092926681   0.889198315095052   0.125518041725214   1.0000000
N2   N   0.445305158671772   0.389319246002573   0.122833133679731   1.0000000
N2   N   0.945027287094919   0.889251501604836   0.125580309312001   1.0000000
N2   N   0.778370166114560   0.389075052560197   0.126565751374807   1.0000000
N2   N   0.278370816960736   0.555835885073407   0.624509791976395   1.0000000
N2   N   0.111716807011330   0.055886782390128   0.624830699152494   1.0000000
N2   N   0.611841919985251   0.556009171543799   0.624983511595047   1.0000000
N2   N   0.444996790653328   0.055828627830708   0.624339291844236   1.0000000
N2   N   0.944947515618947   0.555777144490828   0.623744723293898   1.0000000
N2   N   0.111641639922606   0.555803165177956   0.125043614648393   1.0000000
N2   N   0.778341681596256   0.055837507464822   0.625067340763420   1.0000000
N2   N   0.278370816960739   0.055868265220552   0.125490208023591   1.0000000
N2   N   0.445124298418974   0.555883387003403   0.125785409995487   1.0000000
N2   N   0.778343265110975   0.555838299222198   0.126947772623703   1.0000000
N2   N   0.611668092926681   0.055803111164925   0.125518041725214   1.0000000
N2   N   0.445124298418974   0.555883387003403   0.624214590004587   1.0000000
N2   N   0.945046499670585   0.055887632129090   0.124791137551586   1.0000000
N2   N   0.278290120236176   0.722472481188954   0.625227736289608   1.0000000
N2   N   0.111743070937790   0.222538202135599   0.624813217435932   1.0000000
N2   N   0.445124298418974   0.222574244748835   0.624214590004587   1.0000000
N2   N   0.611728985239824   0.722605404576100   0.623819428706753   1.0000000
N2   N   0.944947515618947   0.722503704461409   0.623744723293898   1.0000000
N2   N   0.778377811077208   0.222435967350552   0.624497665366070   1.0000000
N2   N   0.111574737752416   0.722454035542871   0.124958985922410   1.0000000
N2   N   0.444996790653328   0.722501496155937   0.125660708155747   1.0000000
N2   N   0.278442360231107   0.222565863011751   0.125644919008217   1.0000000
N2   N   0.778370166114560   0.722628446887852   0.126565751374807   1.0000000
N2   N   0.611728985239824   0.222456913997059   0.126180571293151   1.0000000
N2   N   0.945046499670585   0.222492200874929   0.124791137551586   1.0000000
N2   N   0.111716807011330   0.389163357954532   0.624830699152494   1.0000000
N2   N   0.278290120236175   0.889150972380454   0.625227736289608   1.0000000
N2   N   0.611668092926681   0.889198315095071   0.624481958274756   1.0000000
N2   N   0.445305158671766   0.389319246002573   0.627166866320358   1.0000000
N2   N   0.945027287094919   0.889251501604836   0.624419690687992   1.0000000
N2   N   0.111641639922606   0.889171808078151   0.125043614648394   1.0000000
N2   N   0.778370166114560   0.389075052560197   0.623434248625224   1.0000000
N2   N   0.444975248625884   0.889154290979489   0.125064829811120   1.0000000
N2   N   0.278442360231093   0.389209830552644   0.125644919008213   1.0000000
N2   N   0.278370816960733   0.555835885073407   0.125490208023591   1.0000000
N2   N   0.611841919985252   0.389166081774801   0.125016488404919   1.0000000
N2   N   0.778377811077298   0.889275177060008   0.125502334633954   1.0000000
N2   N   0.945027287094919   0.389109118823471   0.125580309312001   1.0000000
N2   N   0.111641639922606   0.555803165177956   0.624956385351597   1.0000000
N2   N   0.278370816960736   0.055868265220552   0.624509791976395   1.0000000
N2   N   0.778343265110975   0.555838299222198   0.623052227376270   1.0000000
N2   N   0.611668092926681   0.055803111164926   0.624481958274762   1.0000000
N2   N   0.945046499670585   0.055887632129090   0.625208862448373   1.0000000
N2   N   0.057647594596311   0.111830844336222   0.375000000000000   1.0000000
N2   N   0.555815756830050   0.623730643354901   0.375000000000000   1.0000000
N2   N   0.386482810158473   0.096626010497962   0.375000000000000   1.0000000
N2   N   0.887253867617412   0.610293600475366   0.375000000000000   1.0000000
N2   N   0.724868414554277   0.111154677875211   0.375000000000000   1.0000000
N2   N   0.054883632000881   0.777434300187961   0.875000000000000   1.0000000
N2   N   0.388239671505782   0.777448378498094   0.875000000000000   1.0000000
N2   N   0.221625510679708   0.277479422006461   0.875000000000000   1.0000000
N2   N   0.721574016014355   0.777452188174093   0.875000000000000   1.0000000
N2   N   0.554927660112855   0.277455010173484   0.875000000000000   1.0000000
N2   N   0.888271946516084   0.277468281213292   0.875000000000000   1.0000000
N2   N   0.219370706913091   0.776352020123252   0.375000000000000   1.0000000
N2   N   0.057647594596311   0.279150083593425   0.375000000000000   1.0000000
N2   N   0.383393222875610   0.246825872116806   0.375000000000000   1.0000000
N2   N   0.556497304918007   0.784237457824750   0.375000000000000   1.0000000
N2   N   0.889502549334666   0.778811228194323   0.375000000000000   1.0000000
N2   N   0.724571535583500   0.275783369352560   0.375000000000000   1.0000000
N2   N   0.054911290301232   0.944125992732758   0.875000000000000   1.0000000
N2   N   0.388239671505782   0.944124626341009   0.875000000000000   1.0000000
N2   N   0.221581238702069   0.444138062519217   0.875000000000000   1.0000000
N2   N   0.554913523022867   0.444123428178098   0.875000000000000   1.0000000
N2   N   0.721568444476625   0.944125437709938   0.875000000000000   1.0000000
N2   N   0.888235600099996   0.444113762295311   0.875000000000000   1.0000000
N2   N   0.054067652973649   0.445369736796904   0.375000000000000   1.0000000
N2   N   0.219211547848934   0.939036934941919   0.375000000000000   1.0000000
N2   N   0.556592529092288   0.944962931212872   0.375000000000000   1.0000000
N2   N   0.383393222875610   0.469900684092178   0.375000000000000   1.0000000
N2   N   0.890990024841163   0.946344814461778   0.375000000000000   1.0000000
N2   N   0.725271147613667   0.442789674933712   0.375000000000000   1.0000000
N2   N   0.221589677599802   0.610801593691784   0.875000000000000   1.0000000
N2   N   0.054930106007438   0.110793854033065   0.875000000000000   1.0000000
N2   N   0.554927660112855   0.610805983272732   0.875000000000000   1.0000000
N2   N   0.388242335654139   0.110772962976170   0.875000000000000   1.0000000
N2   N   0.888239692371075   0.610786512852119   0.875000000000000   1.0000000
N2   N   0.053169743952712   0.610721130761093   0.375000000000000   1.0000000
N2   N   0.721568444476625   0.110776340099911   0.875000000000000   1.0000000
N2   N   0.218025989900458   0.102247395285821   0.375000000000000   1.0000000
N2   N   0.386482810158473   0.623190132993820   0.375000000000000   1.0000000
N2   N   0.725271147613667   0.615814806013311   0.375000000000000   1.0000000
N2   N   0.556497304918007   0.105593180426471   0.375000000000000   1.0000000
N2   N   0.388242335654139   0.610802706011272   0.875000000000000   1.0000000
N2   N   0.891740561183507   0.112536947258478   0.375000000000000   1.0000000
N2   N   0.221557338380127   0.777445335856757   0.875000000000000   1.0000000
N2   N   0.054930106007438   0.277469585307719   0.875000000000000   1.0000000
N2   N   0.388241792376727   0.277441048982546   0.875000000000000   1.0000000
N2   N   0.554901734505711   0.777453736919125   0.875000000000000   1.0000000
N2   N   0.888235600099996   0.777455171137954   0.875000000000000   1.0000000
N2   N   0.721574016014355   0.277455161173717   0.875000000000000   1.0000000
N2   N   0.053169743952715   0.775781946524934   0.375000000000000   1.0000000
N2   N   0.387188118710595   0.780988943205913   0.375000000000000   1.0000000
N2   N   0.225284414129044   0.279308873731182   0.375000000000000   1.0000000
N2   N   0.724571535583500   0.782121499564175   0.375000000000000   1.0000000
N2   N   0.555815756830050   0.265418446808504   0.375000000000000   1.0000000
N2   N   0.890990024841124   0.277978543712664   0.375000000000000   1.0000000
N2   N   0.054911290301231   0.444118630901686   0.875000000000000   1.0000000
N2   N   0.221589677599802   0.944121417241355   0.875000000000000   1.0000000
N2   N   0.554927368984259   0.944130351158900   0.875000000000000   1.0000000
N2   N   0.388241792376727   0.444134076727568   0.875000000000000   1.0000000
N2   N   0.888271946516084   0.944136998636142   0.875000000000000   1.0000000
N2   N   0.054067652973649   0.942031249509890   0.375000000000000   1.0000000
N2   N   0.721573918431353   0.444111691385192   0.875000000000000   1.0000000
N2   N   0.387188118710595   0.939532508838044   0.375000000000000   1.0000000
N2   N   0.218025989900458   0.449111927947966   0.375000000000000   1.0000000
N2   N   0.219211547848934   0.613507946240523   0.375000000000000   1.0000000
N2   N   0.724868414554277   0.947047070012569   0.375000000000000   1.0000000
N2   N   0.889502549334666   0.444024654473713   0.375000000000000   1.0000000
N2   N   0.054883632000880   0.610782665146173   0.875000000000000   1.0000000
N2   N   0.221581238702067   0.110776509516243   0.875000000000000   1.0000000
N2   N   0.721573918431353   0.610795560379365   0.875000000000000   1.0000000
N2   N   0.554901734505711   0.110781330919908   0.875000000000000   1.0000000
N2   N   0.888246115137249   0.110789724235321   0.875000000000000   1.0000000
B2   B   0.109116704987329   0.052121287170508   0.375000000000000   1.0000000
B2   B   0.615101592392807   0.573456021434072   0.375000000000000   1.0000000
B2   B   0.444973631639284   0.047806996763268   0.375000000000000   1.0000000
B2   B   0.942733398155107   0.554900822002386   0.375000000000000   1.0000000
B2   B   0.780981407537398   0.057157370435382   0.375000000000000   1.0000000
B2   B   0.110388309281968   0.721860821307625   0.875000000000000   1.0000000
B2   B   0.443759655771168   0.721851400701875   0.875000000000000   1.0000000
B2   B   0.277240972713364   0.222014411457609   0.875000000000000   1.0000000
B2   B   0.777050045185213   0.721845231890959   0.875000000000000   1.0000000
B2   B   0.610497250901448   0.222014988121420   0.875000000000000   1.0000000
B2   B   0.943871183654467   0.221991555733983   0.875000000000000   1.0000000
B2   B   0.276207391828833   0.723567177588230   0.375000000000000   1.0000000
B2   B   0.114290539540992   0.223811936437169   0.375000000000000   1.0000000
B2   B   0.444768970832111   0.204800450720323   0.375000000000000   1.0000000
B2   B   0.613201546865599   0.731042941962287   0.375000000000000   1.0000000
B2   B   0.942733398155107   0.721165909486155   0.375000000000000   1.0000000
B2   B   0.780376020549731   0.221817582919776   0.375000000000000   1.0000000
B2   B   0.110507881178095   0.888590715301628   0.875000000000000   1.0000000
B2   B   0.443837764744966   0.888585549039195   0.875000000000000   1.0000000
B2   B   0.277240972713364   0.388559894589131   0.875000000000000   1.0000000
B2   B   0.610461372212493   0.388535409832626   0.875000000000000   1.0000000
B2   B   0.777164720184778   0.888568149701745   0.875000000000000   1.0000000
B2   B   0.943861320617003   0.388530395563527   0.875000000000000   1.0000000
B2   B   0.109116704987329   0.390328751150115   0.375000000000000   1.0000000
B2   B   0.276207391828833   0.885973547573828   0.375000000000000   1.0000000
B2   B   0.613740509288239   0.892788781733956   0.375000000000000   1.0000000
B2   B   0.944335547633313   0.888874923127915   0.375000000000000   1.0000000
B2   B   0.779535017912253   0.387496366996229   0.375000000000000   1.0000000
B2   B   0.277208918669468   0.555321282359508   0.875000000000000   1.0000000
B2   B   0.110470485211106   0.055236393190962   0.875000000000000   1.0000000
B2   B   0.610461372212493   0.555259295713351   0.875000000000000   1.0000000
B2   B   0.443759655771168   0.055241588402534   0.875000000000000   1.0000000
B2   B   0.943811413805945   0.555294573918307   0.875000000000000   1.0000000
B2   B   0.108930134267274   0.556195574461804   0.375000000000000   1.0000000
B2   B   0.777069856677218   0.055201595005310   0.875000000000000   1.0000000
B2   B   0.276003388801117   0.048471473799804   0.375000000000000   1.0000000
B2   B   0.444768970832128   0.573301853445180   0.375000000000000   1.0000000
B2   B   0.776458501292457   0.554895917312914   0.375000000000000   1.0000000
B2   B   0.613740509288238   0.054285060887483   0.375000000000000   1.0000000
B2   B   0.443835036978752   0.555215715141784   0.875000000000000   1.0000000
B2   B   0.947069465942311   0.057114339842849   0.375000000000000   1.0000000
B2   B   0.277180145876405   0.721858396141716   0.875000000000000   1.0000000
B2   B   0.110572278093328   0.221952805713328   0.875000000000000   1.0000000
B2   B   0.443835036978752   0.221952655170378   0.875000000000000   1.0000000
B2   B   0.610497250901452   0.721815596113402   0.875000000000000   1.0000000
B2   B   0.943811413805890   0.721850173220889   0.875000000000000   1.0000000
B2   B   0.777164720184778   0.221929903816328   0.875000000000000   1.0000000
B2   B   0.108818062836581   0.721075698084895   0.375000000000000   1.0000000
B2   B   0.444973631639284   0.730499968209338   0.375000000000000   1.0000000
B2   B   0.275491124380830   0.211373895685828   0.375000000000000   1.0000000
B2   B   0.779535017912253   0.725371984249413   0.375000000000000   1.0000000
B2   B   0.613201546865599   0.215491938236642   0.375000000000000   1.0000000
B2   B   0.947069465942311   0.223288459432687   0.375000000000000   1.0000000
B2   B   0.110470485211106   0.388567425353462   0.875000000000000   1.0000000
B2   B   0.277180145876405   0.888655083068159   0.875000000000000   1.0000000
B2   B   0.610502879862422   0.888629846799455   0.875000000000000   1.0000000
B2   B   0.443750700159919   0.388542016746609   0.875000000000000   1.0000000
B2   B   0.943861320617003   0.888664258386732   0.875000000000000   1.0000000
B2   B   0.108930134267273   0.886067893138768   0.375000000000000   1.0000000
B2   B   0.777050045185213   0.388538146627644   0.875000000000000   1.0000000
B2   B   0.445241500648880   0.889287416990996   0.375000000000000   1.0000000
B2   B   0.275491124380830   0.397450562028296   0.375000000000000   1.0000000
B2   B   0.276003388801117   0.560865248334672   0.375000000000000   1.0000000
B2   B   0.615101592392807   0.374978904292068   0.375000000000000   1.0000000
B2   B   0.780376020549731   0.891891770963183   0.375000000000000   1.0000000
B2   B   0.944335547633313   0.388793957838652   0.375000000000000   1.0000000
B2   B   0.110507881178093   0.555250499209547   0.875000000000000   1.0000000
B2   B   0.277208918669468   0.055220969643204   0.875000000000000   1.0000000
B2   B   0.777105413946989   0.555219373640120   0.875000000000000   1.0000000
B2   B   0.610502879862422   0.055206366396209   0.875000000000000   1.0000000
B2   B   0.943871183654475   0.055212961253840   0.875000000000000   1.0000000
B2   B   0.056185825023817   0.111443800906994   0.125187280181784   1.0000000
B2   B   0.556189949495842   0.611340972806252   0.126216740056514   1.0000000
B2   B   0.389557246809033   0.111591875128135   0.126108368279829   1.0000000
B2   B   0.889325368549690   0.611329350941472   0.126798648734454   1.0000000
B2   B   0.722737164115603   0.111315632994171   0.125452221256316   1.0000000
B2   B   0.055992562564127   0.777988738131693   0.624529588261246   1.0000000
B2   B   0.389424058701782   0.777940491782310   0.624726971627788   1.0000000
B2   B   0.223080891938837   0.278207112636062   0.623970040841709   1.0000000
B2   B   0.722709201279593   0.778004342060814   0.623646111895507   1.0000000
B2   B   0.556189949495842   0.278182310022942   0.623783259943420   1.0000000
B2   B   0.889462938914822   0.278000915682236   0.624598634084175   1.0000000
B2   B   0.222711989007705   0.778022661170426   0.124832324906913   1.0000000
B2   B   0.056185825023817   0.278075357450139   0.125187280181784   1.0000000
B2   B   0.389707765392289   0.278443498227337   0.125934315375163   1.0000000
B2   B   0.556090165661573   0.777984476609498   0.126087692230604   1.0000000
B2   B   0.889317808660936   0.778061552394964   0.126378207931870   1.0000000
B2   B   0.722709201279593   0.278038192552184   0.126353888104521   1.0000000
B2   B   0.056103856474965   0.944855622678710   0.624651941009167   1.0000000
B2   B   0.389424058701782   0.944816900252779   0.624726971627788   1.0000000
B2   B   0.222940794974337   0.444647123150416   0.624291872913203   1.0000000
B2   B   0.556125556127323   0.444729444730326   0.624940266742518   1.0000000
B2   B   0.722737164115603   0.944754864454711   0.624547778743675   1.0000000
B2   B   0.889317808660936   0.444589589599194   0.623621792068125   1.0000000
B2   B   0.056103856474965   0.444581567129568   0.125348058990741   1.0000000
B2   B   0.222850565728481   0.944853602607030   0.125175675765093   1.0000000
B2   B   0.556122854071267   0.944728093702333   0.125510596884430   1.0000000
B2   B   0.389707765392289   0.444597600498213   0.125934315375174   1.0000000
B2   B   0.889462938914822   0.944795356565992   0.125401365915824   1.0000000
B2   B   0.722656327849954   0.444582780363417   0.126650351564306   1.0000000
B2   B   0.222850565728481   0.611330296454774   0.624824324235031   1.0000000
B2   B   0.056185825023817   0.111443800906994   0.624812719818220   1.0000000
B2   B   0.556189949495842   0.611340972806252   0.623783259943420   1.0000000
B2   B   0.389557246809033   0.111591875128133   0.623891631720217   1.0000000
B2   B   0.889325368549690   0.611329350941472   0.623201351265530   1.0000000
B2   B   0.055992562564127   0.611337157765690   0.125470411738618   1.0000000
B2   B   0.722737164115603   0.111315632994171   0.624547778743675   1.0000000
B2   B   0.222940794974337   0.111627005157257   0.125708127086792   1.0000000
B2   B   0.389557246809033   0.611298705014215   0.126108368279829   1.0000000
B2   B   0.722656327849954   0.611406880819807   0.126650351564298   1.0000000
B2   B   0.556090165661573   0.111439022385417   0.126087692230622   1.0000000
B2   B   0.389557246809033   0.611298705014215   0.623891631720217   1.0000000
B2   B   0.889433283562553   0.111383308447923   0.124945436373932   1.0000000
B2   B   0.222711989007705   0.778022661170426   0.625167675092995   1.0000000
B2   B   0.056185825023817   0.278075357450139   0.624812719818220   1.0000000
B2   B   0.389707765392289   0.278443498227337   0.624065684624798   1.0000000
B2   B   0.556090165661573   0.777984476609498   0.623912307769314   1.0000000
B2   B   0.889317808660936   0.778061552394970   0.623621792068125   1.0000000
B2   B   0.722709201279593   0.278038192552184   0.623646111895507   1.0000000
B2   B   0.055992562564127   0.777988738131693   0.125470411738618   1.0000000
B2   B   0.389424058701782   0.777940491782310   0.125273028372316   1.0000000
B2   B   0.223080891938837   0.278207112636062   0.126029959158329   1.0000000
B2   B   0.722709201279593   0.778004342060814   0.126353888104519   1.0000000
B2   B   0.556189949495842   0.278182310022942   0.126216740056514   1.0000000
B2   B   0.889462938914822   0.278000915682236   0.125401365915824   1.0000000
B2   B   0.056103856474965   0.444581567129568   0.624651941009167   1.0000000
B2   B   0.222850565728481   0.944853602607030   0.624824324235031   1.0000000
B2   B   0.556122854071267   0.944728093702333   0.624489403115682   1.0000000
B2   B   0.389707765392289   0.444597600498213   0.624065684624798   1.0000000
B2   B   0.889462938914822   0.944795356565992   0.624598634084175   1.0000000
B2   B   0.056103856474965   0.944855622678708   0.125348058990742   1.0000000
B2   B   0.722656327849954   0.444582780363417   0.623349648435683   1.0000000
B2   B   0.389424058701782   0.944816900252768   0.125273028372316   1.0000000
B2   B   0.222940794974337   0.444647123150416   0.125708127086792   1.0000000
B2   B   0.222850565728481   0.611330296454774   0.125175675765093   1.0000000
B2   B   0.556125556127323   0.444729444730326   0.125059733257484   1.0000000
B2   B   0.722737164115603   0.944754864454711   0.125452221256316   1.0000000
B2   B   0.889317808660936   0.444589589599194   0.126378207931870   1.0000000
B2   B   0.055992562564127   0.611337157765690   0.624529588261246   1.0000000
B2   B   0.222940794974337   0.111627005157257   0.624291872913203   1.0000000
B2   B   0.722656327849954   0.611406880819807   0.623349648435683   1.0000000
B2   B   0.556090165661573   0.111439022385416   0.623912307769314   1.0000000
B2   B   0.889433283562553   0.111383308447923   0.625054563626205   1.0000000


