data_1
_audit_creation_method   'vasp2cif'
_cell_length_a    14.93631414619966
_cell_length_b    14.936314146199727
_cell_length_c    13.341276283792837
_cell_angle_alpha    90.0
_cell_angle_beta    90.0
_cell_angle_gamma    119.99999999999984

_symmetry_space_group_name_H-M    'P 1'
loop_
_atom_site_label
_atom_site_type_symbol
_atom_site_fract_x
_atom_site_fract_y
_atom_site_fract_z
_atom_site_occupancy
P2   P   0.469101804979272   0.401217569156300   0.375000000000000   1.0000000
N2   N   0.111103834010059   0.055527778188588   0.125214212405738   1.0000000
N2   N   0.611079858747471   0.555536599213721   0.126831184619783   1.0000000
N2   N   0.444421791430431   0.055525955009576   0.125338752041338   1.0000000
N2   N   0.944451180111630   0.555568682634007   0.125336201821020   1.0000000
N2   N   0.777763578741497   0.055548456037416   0.125126365952597   1.0000000
N2   N   0.111112979925241   0.722223156629285   0.624833086075543   1.0000000
N2   N   0.444421791430431   0.722229169754192   0.624661247958663   1.0000000
N2   N   0.277752512068587   0.222192472621206   0.624647967917195   1.0000000
N2   N   0.777763951837457   0.722196126952211   0.624272575616445   1.0000000
N2   N   0.611079809139477   0.222210007252863   0.624314530139077   1.0000000
N2   N   0.944442522397555   0.222233122483285   0.624840774510220   1.0000000
N2   N   0.277766359892837   0.722228345599935   0.125185258118462   1.0000000
N2   N   0.111110128550872   0.222221730942100   0.125224378572056   1.0000000
N2   N   0.444421074815549   0.222193366593979   0.125788183956672   1.0000000
N2   N   0.611079809139477   0.722203135219942   0.125685469860923   1.0000000
N2   N   0.944451180111630   0.722215830810958   0.125336201821020   1.0000000
N2   N   0.777763143622505   0.222228740613099   0.125236782501107   1.0000000
N2   N   0.111109159488118   0.888868647902211   0.624822870202596   1.0000000
N2   N   0.444423386673730   0.888878360003530   0.624820636724820   1.0000000
N2   N   0.277752512068587   0.388893372780710   0.624647967917195   1.0000000
N2   N   0.611079858747471   0.388876592867078   0.623168815380217   1.0000000
N2   N   0.777763143622505   0.888867736342734   0.624763217498893   1.0000000
N2   N   0.944443223100930   0.388910515616782   0.624787244702108   1.0000000
N2   N   0.111103834010059   0.388909389154799   0.125214212405738   1.0000000
N2   N   0.277766359892837   0.888871347626231   0.125185258118462   1.0000000
N2   N   0.611085812251605   0.888878683872513   0.125184036658705   1.0000000
N2   N   0.444348131863406   0.388840732598367   0.125864826451476   1.0000000
N2   N   0.944443223100930   0.888866040817478   0.125212755297891   1.0000000
N2   N   0.777763951837457   0.388901158218574   0.125727424383554   1.0000000
N2   N   0.277764518944285   0.555573247637607   0.624701054818324   1.0000000
N2   N   0.111103834010059   0.055527778188588   0.624785787594262   1.0000000
N2   N   0.611079858747471   0.555536599213721   0.623168815380217   1.0000000
N2   N   0.444421791430431   0.055525955009576   0.624661247958663   1.0000000
N2   N   0.944451180111630   0.555568682634007   0.624663798178981   1.0000000
N2   N   0.111109159488118   0.555573844919235   0.125177129797404   1.0000000
N2   N   0.777763578741497   0.055548456037416   0.624873634047403   1.0000000
N2   N   0.277764518944285   0.055524604640014   0.125298945181676   1.0000000
N2   N   0.444421074815549   0.555561041554905   0.125788183956672   1.0000000
N2   N   0.777773525263056   0.555553429298195   0.126058580187498   1.0000000
N2   N   0.611085812251605   0.055540461712422   0.125184036658705   1.0000000
N2   N   0.444421074815549   0.555561041554905   0.624211816043328   1.0000000
N2   N   0.944442522397555   0.055542733247606   0.125159225489779   1.0000000
N2   N   0.277766359892837   0.722228345599935   0.624814741881538   1.0000000
N2   N   0.111110128550872   0.222221730942100   0.624775621427944   1.0000000
N2   N   0.444421074815549   0.222193366593979   0.624211816043328   1.0000000
N2   N   0.611079809139477   0.722203135219942   0.624314530139077   1.0000000
N2   N   0.944451180111630   0.722215830810958   0.624663798178981   1.0000000
N2   N   0.777763143622505   0.222228740613099   0.624763217498893   1.0000000
N2   N   0.111112979925241   0.722223156629285   0.125166913924458   1.0000000
N2   N   0.444421791430431   0.722229169754192   0.125338752041338   1.0000000
N2   N   0.277752512068587   0.222192472621206   0.125352032082806   1.0000000
N2   N   0.777763951837457   0.722196126952211   0.125727424383554   1.0000000
N2   N   0.611079809139477   0.222210007252863   0.125685469860923   1.0000000
N2   N   0.944442522397555   0.222233122483285   0.125159225489779   1.0000000
N2   N   0.111103834010059   0.388909389154799   0.624785787594262   1.0000000
N2   N   0.277766359892837   0.888871347626231   0.624814741881538   1.0000000
N2   N   0.611085812251605   0.888878683872513   0.624815963341294   1.0000000
N2   N   0.444348131863406   0.388840732598367   0.624135173548524   1.0000000
N2   N   0.944443223100930   0.888866040817478   0.624787244702108   1.0000000
N2   N   0.111109159488118   0.888868647902211   0.125177129797404   1.0000000
N2   N   0.777763951837457   0.388901158218574   0.624272575616445   1.0000000
N2   N   0.444423386673730   0.888878360003530   0.125179363275180   1.0000000
N2   N   0.277752512068587   0.388893372780710   0.125352032082806   1.0000000
N2   N   0.277764518944285   0.555573247637607   0.125298945181676   1.0000000
N2   N   0.611079858747471   0.388876592867078   0.126831184619783   1.0000000
N2   N   0.777763143622505   0.888867736342734   0.125236782501107   1.0000000
N2   N   0.944443223100930   0.388910515616782   0.125212755297891   1.0000000
N2   N   0.111109159488118   0.555573844919235   0.624822870202596   1.0000000
N2   N   0.277764518944285   0.055524604640014   0.624701054818324   1.0000000
N2   N   0.777773525263056   0.555553429298195   0.623941419812502   1.0000000
N2   N   0.611085812251605   0.055540461712422   0.624815963341294   1.0000000
N2   N   0.944442522397555   0.055542733247606   0.624840774510220   1.0000000
N2   N   0.057547665049873   0.112230050932779   0.375000000000000   1.0000000
N2   N   0.554819081593178   0.613004666930706   0.375000000000000   1.0000000
N2   N   0.389061665898559   0.108825025871732   0.375000000000000   1.0000000
N2   N   0.889128947449756   0.611231140391549   0.375000000000000   1.0000000
N2   N   0.723832250772406   0.111656714534653   0.375000000000000   1.0000000
N2   N   0.055526503008053   0.777766060086764   0.875000000000000   1.0000000
N2   N   0.388876230443553   0.777768837374170   0.875000000000000   1.0000000
N2   N   0.222195988504281   0.277764660918809   0.875000000000000   1.0000000
N2   N   0.722202876723643   0.777769229034711   0.875000000000000   1.0000000
N2   N   0.555536992693754   0.277773214669499   0.875000000000000   1.0000000
N2   N   0.888869612154308   0.277766229516567   0.875000000000000   1.0000000
N2   N   0.222494863289897   0.777914098311616   0.375000000000000   1.0000000
N2   N   0.057547665049873   0.278650947450430   0.375000000000000   1.0000000
N2   N   0.391894453255429   0.275831771983498   0.375000000000000   1.0000000
N2   N   0.556501053693613   0.779436680569536   0.375000000000000   1.0000000
N2   N   0.889684059650152   0.778293506136511   0.375000000000000   1.0000000
N2   N   0.723440875348683   0.277822055411027   0.375000000000000   1.0000000
N2   N   0.055530401430759   0.944435953308723   0.875000000000000   1.0000000
N2   N   0.388876230443553   0.944440726402720   0.875000000000000   1.0000000
N2   N   0.222196987277654   0.444427202152788   0.875000000000000   1.0000000
N2   N   0.555535279247069   0.444434306290199   0.875000000000000   1.0000000
N2   N   0.722206765160337   0.944437399743431   0.875000000000000   1.0000000
N2   N   0.888863950007043   0.444427611085991   0.875000000000000   1.0000000
N2   N   0.056764390053218   0.444912385289747   0.375000000000000   1.0000000
N2   N   0.222537925075547   0.944170392901634   0.375000000000000   1.0000000
N2   N   0.556741904576684   0.945037618955007   0.375000000000000   1.0000000
N2   N   0.391894453255429   0.449396014605267   0.375000000000000   1.0000000
N2   N   0.890487039356983   0.945504130054865   0.375000000000000   1.0000000
N2   N   0.722448796832966   0.445416242252548   0.375000000000000   1.0000000
N2   N   0.222199747704239   0.611094493612271   0.875000000000000   1.0000000
N2   N   0.055530214279537   0.111099721572379   0.875000000000000   1.0000000
N2   N   0.555536992693754   0.611097111357589   0.875000000000000   1.0000000
N2   N   0.388872280753780   0.111109087775480   0.875000000000000   1.0000000
N2   N   0.888858591080105   0.611095962206724   0.875000000000000   1.0000000
N2   N   0.055833917816470   0.611282153560271   0.375000000000000   1.0000000
N2   N   0.722206765160337   0.111102698750241   0.875000000000000   1.0000000
N2   N   0.224171099172412   0.112022221986532   0.375000000000000   1.0000000
N2   N   0.389061665898559   0.613569973360170   0.375000000000000   1.0000000
N2   N   0.722448796832966   0.610365887913752   0.375000000000000   1.0000000
N2   N   0.556501053693613   0.110397706457413   0.375000000000000   1.0000000
N2   N   0.388872280753780   0.611096526311642   0.875000000000000   1.0000000
N2   N   0.890747625943980   0.112040479638661   0.375000000000000   1.0000000
N2   N   0.222201411684944   0.777767372509140   0.875000000000000   1.0000000
N2   N   0.055530214279537   0.277763826040493   0.875000000000000   1.0000000
N2   N   0.388868040341254   0.277769935784684   0.875000000000000   1.0000000
N2   N   0.555541507457371   0.777768914252566   0.875000000000000   1.0000000
N2   N   0.888863950007043   0.777769672254388   0.875000000000000   1.0000000
N2   N   0.722202876723643   0.277766981022266   0.875000000000000   1.0000000
N2   N   0.055833917816470   0.777885097589534   0.375000000000000   1.0000000
N2   N   0.389476885291679   0.778760548925581   0.375000000000000   1.0000000
N2   N   0.224948774643888   0.279141053988613   0.375000000000000   1.0000000
N2   N   0.723440875348683   0.778952153270992   0.375000000000000   1.0000000
N2   N   0.554819081593178   0.275147747995807   0.375000000000000   1.0000000
N2   N   0.890487039356983   0.278316242635454   0.375000000000000   1.0000000
N2   N   0.055530401430759   0.444427781455364   0.875000000000000   1.0000000
N2   N   0.222199747704239   0.944438587425303   0.875000000000000   1.0000000
N2   N   0.555542958636746   0.944438145985037   0.875000000000000   1.0000000
N2   N   0.388868040341254   0.444431437889907   0.875000000000000   1.0000000
N2   N   0.888869612154308   0.944436715971076   0.875000000000000   1.0000000
N2   N   0.056764390053218   0.945185338096800   0.375000000000000   1.0000000
N2   N   0.722195905710729   0.444430701657832   0.875000000000000   1.0000000
N2   N   0.389476885291679   0.944049669699434   0.375000000000000   1.0000000
N2   N   0.224171099172412   0.445482210519216   0.375000000000000   1.0000000
N2   N   0.222537925075547   0.611700865507249   0.375000000000000   1.0000000
N2   N   0.723832250772406   0.945508869571089   0.375000000000000   1.0000000
N2   N   0.889684059650152   0.444723886846975   0.375000000000000   1.0000000
N2   N   0.055526503008053   0.611093776254625   0.875000000000000   1.0000000
N2   N   0.222196987277654   0.111103118458202   0.875000000000000   1.0000000
N2   N   0.722195905710729   0.611098537386233   0.875000000000000   1.0000000
N2   N   0.555541507457371   0.111105926538140   0.875000000000000   1.0000000
N2   N   0.888870439898427   0.111101886615885   0.875000000000000   1.0000000
B2   B   0.112313875121821   0.056225251911762   0.375000000000000   1.0000000
B2   B   0.618619534093371   0.572618719544408   0.375000000000000   1.0000000
B2   B   0.445210152014442   0.053811025390355   0.375000000000000   1.0000000
B2   B   0.945602021079953   0.555872363443317   0.375000000000000   1.0000000
B2   B   0.779858855869945   0.056596094601640   0.375000000000000   1.0000000
B2   B   0.111102247896704   0.722217790615016   0.875000000000000   1.0000000
B2   B   0.444419492796406   0.722246765070524   0.875000000000000   1.0000000
B2   B   0.277679412872486   0.222160763979434   0.875000000000000   1.0000000
B2   B   0.777806650256185   0.722284798426358   0.875000000000000   1.0000000
B2   B   0.611113515097430   0.222163621894654   0.875000000000000   1.0000000
B2   B   0.944416898516617   0.222195026498956   0.875000000000000   1.0000000
B2   B   0.278176414440626   0.722837087251366   0.375000000000000   1.0000000
B2   B   0.112572151752662   0.222952742542996   0.375000000000000   1.0000000
B2   B   0.443462944843035   0.216748266170595   0.375000000000000   1.0000000
B2   B   0.613423413059031   0.727278270409179   0.375000000000000   1.0000000
B2   B   0.945602021079953   0.723062990969972   0.375000000000000   1.0000000
B2   B   0.779942388250109   0.222168419218876   0.375000000000000   1.0000000
B2   B   0.111086555258020   0.888880507945487   0.875000000000000   1.0000000
B2   B   0.444430500138575   0.888881916735952   0.875000000000000   1.0000000
B2   B   0.277679412872486   0.388851982226380   0.875000000000000   1.0000000
B2   B   0.611112668789643   0.388856394256376   0.875000000000000   1.0000000
B2   B   0.777790296691532   0.888939008336899   0.875000000000000   1.0000000
B2   B   0.944443642725444   0.388857676868339   0.875000000000000   1.0000000
B2   B   0.112313875121821   0.389421956543387   0.375000000000000   1.0000000
B2   B   0.278176414440626   0.888672660522590   0.375000000000000   1.0000000
B2   B   0.612999137328079   0.890849255445626   0.375000000000000   1.0000000
B2   B   0.945983370367553   0.890285832430403   0.375000000000000   1.0000000
B2   B   0.780249243770486   0.388024131855805   0.375000000000000   1.0000000
B2   B   0.277717921993889   0.555546132322835   0.875000000000000   1.0000000
B2   B   0.111050411355701   0.055528800115575   0.875000000000000   1.0000000
B2   B   0.611112668789643   0.555589607866596   0.875000000000000   1.0000000
B2   B   0.444419492796406   0.055506061059218   0.875000000000000   1.0000000
B2   B   0.944462394917418   0.555547324062284   0.875000000000000   1.0000000
B2   B   0.111579067586053   0.555911030993473   0.375000000000000   1.0000000
B2   B   0.777779976447302   0.055556654890319   0.875000000000000   1.0000000
B2   B   0.277628405535019   0.054300888494293   0.375000000000000   1.0000000
B2   B   0.443462944843035   0.560048012005775   0.375000000000000   1.0000000
B2   B   0.780358660240731   0.556845996787033   0.375000000000000   1.0000000
B2   B   0.612999137328079   0.055483215215781   0.375000000000000   1.0000000
B2   B   0.444391163362005   0.555570209328988   0.875000000000000   1.0000000
B2   B   0.946306163498015   0.056759409891176   0.375000000000000   1.0000000
B2   B   0.277750662786813   0.722216694280302   0.875000000000000   1.0000000
B2   B   0.111029700540040   0.222181516936684   0.875000000000000   1.0000000
B2   B   0.444391163362005   0.222154287366353   0.875000000000000   1.0000000
B2   B   0.611113515097430   0.722283226536104   0.875000000000000   1.0000000
B2   B   0.944462394917418   0.722248404188469   0.875000000000000   1.0000000
B2   B   0.777790296691532   0.222184621687963   0.875000000000000   1.0000000
B2   B   0.111590907363156   0.722462120348243   0.375000000000000   1.0000000
B2   B   0.445210152014442   0.724732459957424   0.375000000000000   1.0000000
B2   B   0.278134320847214   0.222153797598616   0.375000000000000   1.0000000
B2   B   0.780249243770486   0.725558445248010   0.375000000000000   1.0000000
B2   B   0.613423413059031   0.219478475983180   0.375000000000000   1.0000000
B2   B   0.946306163498015   0.222880086940174   0.375000000000000   1.0000000
B2   B   0.111050411355701   0.388854944573455   0.875000000000000   1.0000000
B2   B   0.277750662786813   0.888867301839839   0.875000000000000   1.0000000
B2   B   0.611115353857062   0.888918154531245   0.875000000000000   1.0000000
B2   B   0.444373201245579   0.388853267289454   0.875000000000000   1.0000000
B2   B   0.944443642725444   0.888919299190433   0.875000000000000   1.0000000
B2   B   0.111579067586053   0.889001369925908   0.375000000000000   1.0000000
B2   B   0.777806650256185   0.388855185163157   0.875000000000000   1.0000000
B2   B   0.445530184273588   0.889431758803458   0.375000000000000   1.0000000
B2   B   0.278134320847214   0.389313856581927   0.375000000000000   1.0000000
B2   B   0.277628405535019   0.556660850374061   0.375000000000000   1.0000000
B2   B   0.618619534093371   0.379334147882291   0.375000000000000   1.0000000
B2   B   0.779942388250109   0.891107302364561   0.375000000000000   1.0000000
B2   B   0.945983370367553   0.389030871270481   0.375000000000000   1.0000000
B2   B   0.111086555258020   0.555539380645863   0.875000000000000   1.0000000
B2   B   0.277717921993889   0.055505123004389   0.875000000000000   1.0000000
B2   B   0.777812841432047   0.555573087382690   0.875000000000000   1.0000000
B2   B   0.611115353857062   0.055530532659146   0.875000000000000   1.0000000
B2   B   0.944416898516617   0.055555205350997   0.875000000000000   1.0000000
B2   B   0.055495990583985   0.111052406273158   0.124755543457564   1.0000000
B2   B   0.555481851484036   0.611286661872846   0.124970814008285   1.0000000
B2   B   0.388733751028442   0.110818437374712   0.124776121813193   1.0000000
B2   B   0.889151481919938   0.611242407626641   0.124847515463749   1.0000000
B2   B   0.722219281869633   0.111051905812644   0.124710876800669   1.0000000
B2   B   0.055676232258670   0.777818285425319   0.625245977740958   1.0000000
B2   B   0.388795860706811   0.777821203030886   0.625233495150886   1.0000000
B2   B   0.222029237064186   0.277681285198761   0.625374521670926   1.0000000
B2   B   0.722299595122472   0.777951259714908   0.625179678309053   1.0000000
B2   B   0.555481851484036   0.277528522944525   0.625029185991715   1.0000000
B2   B   0.888942640239175   0.277777596941970   0.625261245461708   1.0000000
B2   B   0.222214208661249   0.777773770997292   0.124767607621561   1.0000000
B2   B   0.055495990583985   0.277776917644163   0.124755543457564   1.0000000
B2   B   0.388631334766192   0.277488459084817   0.124559999039091   1.0000000
B2   B   0.555482570931101   0.777910735928290   0.124766778584453   1.0000000
B2   B   0.889072582708605   0.777904032110649   0.124796773681474   1.0000000
B2   B   0.722299595122472   0.277681668740898   0.124820321690948   1.0000000
B2   B   0.055578038666999   0.944407367520217   0.625246142383624   1.0000000
B2   B   0.388795860706811   0.944307991009259   0.625233495150886   1.0000000
B2   B   0.222069792840205   0.444499215118721   0.625283023539909   1.0000000
B2   B   0.555507282931476   0.444420308132402   0.624666513365959   1.0000000
B2   B   0.722219281869633   0.944500709390324   0.625289123199330   1.0000000
B2   B   0.889072582708605   0.444501883931292   0.625203226318525   1.0000000
B2   B   0.055578038666999   0.444504004480111   0.124753857616376   1.0000000
B2   B   0.222168022747354   0.944310493789083   0.124766269406616   1.0000000
B2   B   0.555488090041795   0.944410711687561   0.124714985552468   1.0000000
B2   B   0.388631334766192   0.444476209014711   0.124559999039091   1.0000000
B2   B   0.888942640239175   0.944498376630542   0.124738754538292   1.0000000
B2   B   0.722431373017030   0.444483373095843   0.125122637346251   1.0000000
B2   B   0.222168022747354   0.611190862291607   0.625233730593384   1.0000000
B2   B   0.055495990583985   0.111052406273158   0.625244456542437   1.0000000
B2   B   0.555481851484036   0.611286661872846   0.625029185991715   1.0000000
B2   B   0.388733751028442   0.110818437374712   0.625223878186807   1.0000000
B2   B   0.889151481919938   0.611242407626641   0.625152484536250   1.0000000
B2   B   0.055676232258670   0.611191280166687   0.124754022259043   1.0000000
B2   B   0.722219281869633   0.111051905812644   0.625289123199330   1.0000000
B2   B   0.222069792840205   0.110903911054819   0.124716976460091   1.0000000
B2   B   0.388733751028442   0.611248646987073   0.124776121813193   1.0000000
B2   B   0.722431373017030   0.611281333254523   0.125122637346251   1.0000000
B2   B   0.555482570931101   0.110905168336146   0.124766778584453   1.0000000
B2   B   0.388733751028442   0.611248646987073   0.625223878186807   1.0000000
B2   B   0.888889828796596   0.111111581064969   0.124743479551858   1.0000000
B2   B   0.222214208661249   0.777773770997292   0.625232392378439   1.0000000
B2   B   0.055495990583985   0.277776917644163   0.625244456542437   1.0000000
B2   B   0.388631334766192   0.277488459084817   0.625440000960910   1.0000000
B2   B   0.555482570931101   0.777910735928290   0.625233221415547   1.0000000
B2   B   0.889072582708605   0.777904032110649   0.625203226318525   1.0000000
B2   B   0.722299595122472   0.277681668740898   0.625179678309053   1.0000000
B2   B   0.055676232258670   0.777818285425319   0.124754022259043   1.0000000
B2   B   0.388795860706811   0.777821203030886   0.124766504849115   1.0000000
B2   B   0.222029237064186   0.277681285198761   0.124625478329074   1.0000000
B2   B   0.722299595122472   0.777951259714908   0.124820321690948   1.0000000
B2   B   0.555481851484036   0.277528522944525   0.124970814008285   1.0000000
B2   B   0.888942640239175   0.277777596941970   0.124738754538292   1.0000000
B2   B   0.055578038666999   0.444504004480111   0.625246142383624   1.0000000
B2   B   0.222168022747354   0.944310493789083   0.625233730593384   1.0000000
B2   B   0.555488090041795   0.944410711687561   0.625285014447532   1.0000000
B2   B   0.388631334766192   0.444476209014711   0.625440000960910   1.0000000
B2   B   0.888942640239175   0.944498376630542   0.625261245461708   1.0000000
B2   B   0.055578038666999   0.944407367520217   0.124753857616376   1.0000000
B2   B   0.722431373017030   0.444483373095843   0.624877362653750   1.0000000
B2   B   0.388795860706811   0.944307991009259   0.124766504849115   1.0000000
B2   B   0.222069792840205   0.444499215118721   0.124716976460091   1.0000000
B2   B   0.222168022747354   0.611190862291607   0.124766269406616   1.0000000
B2   B   0.555507282931476   0.444420308132402   0.125333486634040   1.0000000
B2   B   0.722219281869633   0.944500709390324   0.124710876800669   1.0000000
B2   B   0.889072582708605   0.444501883931292   0.124796773681474   1.0000000
B2   B   0.055676232258670   0.611191280166687   0.625245977740958   1.0000000
B2   B   0.222069792840205   0.110903911054819   0.625283023539909   1.0000000
B2   B   0.722431373017030   0.611281333254523   0.624877362653750   1.0000000
B2   B   0.555482570931101   0.110905168336146   0.625233221415547   1.0000000
B2   B   0.888889828796596   0.111111581064969   0.625256520448142   1.0000000


