data_1
_audit_creation_method   'vasp2cif'
_cell_length_a    17.5279
_cell_length_b    17.52789999999977
_cell_length_c    15.0
_cell_angle_alpha    90.0
_cell_angle_beta    90.0
_cell_angle_gamma    120.00000000000043

_symmetry_space_group_name_H-M    'P 1'
loop_
_atom_site_label
_atom_site_type_symbol
_atom_site_fract_x
_atom_site_fract_y
_atom_site_fract_z
_atom_site_occupancy
B2   B   0.906531472848920   0.952114206127196   0.110945210128360   1.0000000
B2   B   0.907074108939387   0.095429964834658   0.110576924171511   1.0000000
B2   B   0.907206991344133   0.238370913772567   0.110611399298645   1.0000000
B2   B   0.906982136077524   0.381094198641228   0.110388302887508   1.0000000
B2   B   0.906872304204982   0.523772579498716   0.110324713546300   1.0000000
B2   B   0.907746214338902   0.667479450599201   0.111348267947802   1.0000000
B2   B   0.906190202276976   0.809018366658898   0.111827057822140   1.0000000
B2   B   0.049540821048454   0.952312920510990   0.111101885692136   1.0000000
B2   B   0.049900365883432   0.095498467994031   0.110618855297447   1.0000000
B2   B   0.050633901640037   0.238861807244261   0.110651327315478   1.0000000
B2   B   0.050512980070414   0.381243813094880   0.111082058940613   1.0000000
B2   B   0.050605624840829   0.523709590793893   0.111127207544311   1.0000000
B2   B   0.049993162829310   0.666575809278406   0.111203471145632   1.0000000
B2   B   0.050023688074961   0.809766850188293   0.111493947712787   1.0000000
B2   B   0.192581976690502   0.952310608966119   0.110794717839597   1.0000000
B2   B   0.192687021016930   0.095481793892863   0.110246453683989   1.0000000
B2   B   0.193317186398771   0.238827258882450   0.110444811923999   1.0000000
B2   B   0.194621814950554   0.382129777912622   0.112243601519379   1.0000000
B2   B   0.194699830112862   0.524006437714074   0.113679574695426   1.0000000
B2   B   0.192893156911982   0.666411850111755   0.112550919809757   1.0000000
B2   B   0.192769865929927   0.809354504054539   0.111189423787261   1.0000000
B2   B   0.335470445927642   0.952025401890467   0.110363502192033   1.0000000
B2   B   0.335082135074370   0.094940645971242   0.110215009543547   1.0000000
B2   B   0.335778584072600   0.238940933794045   0.110070503834120   1.0000000
B2   B   0.336752530600027   0.382799874103437   0.110215734468026   1.0000000
B2   B   0.335411551472003   0.665387962638506   0.112677968313230   1.0000000
B2   B   0.335593836945712   0.808800187040965   0.110485070479734   1.0000000
B2   B   0.478328645209828   0.951964955588072   0.109720171229953   1.0000000
B2   B   0.478182410509514   0.095048878867286   0.110172877703184   1.0000000
B2   B   0.477126444367571   0.237355722568100   0.110013181141496   1.0000000
B2   B   0.478623066318676   0.381818266721640   0.110994755908502   1.0000000
B2   B   0.477053459285702   0.664738268875601   0.110772809469309   1.0000000
B2   B   0.478271456853018   0.808726811878456   0.109136500913347   1.0000000
B2   B   0.621037905492461   0.951947911276384   0.109408904992058   1.0000000
B2   B   0.621158364267338   0.095093860976979   0.110180805321333   1.0000000
B2   B   0.620998691212367   0.238150789530239   0.110195723057393   1.0000000
B2   B   0.618681601931781   0.379703103702738   0.110095296589460   1.0000000
B2   B   0.619254237579269   0.665049163031573   0.112227664393779   1.0000000
B2   B   0.620333816221361   0.808448055626166   0.109282257044568   1.0000000
B2   B   0.763690218676767   0.951982089307088   0.110070269937735   1.0000000
B2   B   0.764069641095480   0.095256411096103   0.110307768948982   1.0000000
B2   B   0.764031991635995   0.238353259992366   0.110432568121934   1.0000000
B2   B   0.763396201634428   0.381448768723612   0.110010716969088   1.0000000
B2   B   0.764483380625287   0.525714058081628   0.110437144240636   1.0000000
B2   B   0.763154097037812   0.665312569438533   0.112525572629888   1.0000000
B2   B   0.763106780842817   0.808596590139620   0.110989617751807   1.0000000
C2   C   0.337517228266449   0.524476741475124   0.127746639888381   1.0000000
C2   C   0.478570869661086   0.525075770885927   0.126247804950838   1.0000000
C2   C   0.619205477544277   0.524050489578796   0.112313607183984   1.0000000
C2   C   0.664716709106082   0.478715003810806   0.110323882353211   1.0000000
N2   N   0.954019315461956   0.904411046047944   0.111389261229907   1.0000000
N2   N   0.954475376486845   0.047565397669171   0.110696214321727   1.0000000
N2   N   0.955121285954538   0.190916354354518   0.110596569104440   1.0000000
N2   N   0.955082682068148   0.333651471239226   0.110629022963896   1.0000000
N2   N   0.955183773648845   0.476361277339938   0.110353019264781   1.0000000
N2   N   0.954879004299119   0.619291716599280   0.110735024549079   1.0000000
N2   N   0.954846390397395   0.762456328417128   0.111778446824389   1.0000000
N2   N   0.097395146837700   0.904880844019196   0.111213657237010   1.0000000
N2   N   0.097330519777578   0.047699293694426   0.110613396816568   1.0000000
N2   N   0.097941349814326   0.190985310919211   0.110538895046836   1.0000000
N2   N   0.099014197844084   0.334521720861691   0.110977840466066   1.0000000
N2   N   0.099117569710052   0.476354863890656   0.111567520049572   1.0000000
N2   N   0.097814950565811   0.618945755770156   0.111574307608966   1.0000000
N2   N   0.097552967852022   0.761913725324431   0.111380699938437   1.0000000
N2   N   0.240240273065085   0.904589479366511   0.110762533494657   1.0000000
N2   N   0.240001628639093   0.047510886042632   0.110362813199560   1.0000000
N2   N   0.240549924295237   0.190955984696072   0.109888526247168   1.0000000
N2   N   0.241491625978253   0.334263151360925   0.111109612221989   1.0000000
N2   N   0.244666288497159   0.477750627915416   0.115359192321006   1.0000000
N2   N   0.240722060526107   0.618851878130109   0.114451690944925   1.0000000
N2   N   0.240443706675646   0.761591760970437   0.111445432430245   1.0000000
N2   N   0.383066490915620   0.904137811640648   0.110016224396351   1.0000000
N2   N   0.382864617084622   0.047334740043167   0.110231452331158   1.0000000
N2   N   0.382294348718807   0.190215103787227   0.110019112104268   1.0000000
N2   N   0.383826911104938   0.334852768613088   0.110463349731321   1.0000000
N2   N   0.385033302255286   0.478208930874942   0.112240942855597   1.0000000
N2   N   0.382128036928650   0.616196839600002   0.114063181489508   1.0000000
N2   N   0.383180334330771   0.760650066134662   0.110107768049497   1.0000000
N2   N   0.525804945682197   0.904041160917265   0.109141282405447   1.0000000
N2   N   0.525804693054702   0.047261935705993   0.110059194302360   1.0000000
N2   N   0.525416111840735   0.190268471417295   0.110123502230190   1.0000000
N2   N   0.523819738715272   0.332509907090500   0.110052881924060   1.0000000
N2   N   0.526343492281861   0.479611596517951   0.113246352955297   1.0000000
N2   N   0.524077677655584   0.616491192278644   0.113425507253682   1.0000000
N2   N   0.525138334355440   0.760263177181448   0.108663647697073   1.0000000
N2   N   0.668305194638557   0.903849951217332   0.109343787991060   1.0000000
N2   N   0.668735752260465   0.047283217747977   0.110000512926415   1.0000000
N2   N   0.668661171470593   0.190315408198353   0.110409507024094   1.0000000
N2   N   0.667880940840593   0.333039907259066   0.109997493864325   1.0000000
N2   N   0.665891115178862   0.616361337762781   0.113669440804237   1.0000000
N2   N   0.667407999479558   0.760092534009745   0.110314270609172   1.0000000
N2   N   0.810998775496467   0.904001771565976   0.110578448182243   1.0000000
N2   N   0.811627231453286   0.047432989373590   0.110326564102742   1.0000000
N2   N   0.811826919602609   0.190609282060198   0.110552140105202   1.0000000
N2   N   0.811556410746050   0.333678425395382   0.110241667838574   1.0000000
N2   N   0.811710531553104   0.476875741505748   0.109963288594445   1.0000000
N2   N   0.812798008419904   0.620609680239776   0.111495422930481   1.0000000
N2   N   0.810267395984896   0.760780153184973   0.112106470890460   1.0000000


