data_1
_audit_creation_method   'vasp2cif'
_cell_length_a    17.52789999999977
_cell_length_b    17.52789999999977
_cell_length_c    15.0
_cell_angle_alpha    90.0
_cell_angle_beta    90.0
_cell_angle_gamma    119.99999999999916

_symmetry_space_group_name_H-M    'P 1'
loop_
_atom_site_label
_atom_site_type_symbol
_atom_site_fract_x
_atom_site_fract_y
_atom_site_fract_z
_atom_site_occupancy
B2   B   0.906540642715447   0.955005389317640   0.110702234178157   1.0000000
B2   B   0.905891598223512   0.097003144241974   0.109694426876954   1.0000000
B2   B   0.905147725444624   0.239022811326581   0.109956494055032   1.0000000
B2   B   0.903773114632377   0.381009096708573   0.110650435590842   1.0000000
B2   B   0.900200450332970   0.522740353773524   0.111577771883631   1.0000000
B2   B   0.901678306301576   0.665428679956219   0.111213661942134   1.0000000
B2   B   0.905703040246395   0.811470794925412   0.111527050655331   1.0000000
B2   B   0.048135546165295   0.953179464943750   0.110633203162808   1.0000000
B2   B   0.048578345453977   0.096221676801340   0.110664888467957   1.0000000
B2   B   0.048360275397442   0.238897294801886   0.111743169504529   1.0000000
B2   B   0.047373849546859   0.381287269960611   0.112046516226567   1.0000000
B2   B   0.045218874720934   0.523332214996713   0.111569466848945   1.0000000
B2   B   0.044959472426386   0.665504661640265   0.111199913910969   1.0000000
B2   B   0.045882737598340   0.808576026826195   0.110914941730058   1.0000000
B2   B   0.189057822189753   0.950958724244280   0.110180491070301   1.0000000
B2   B   0.191075843029479   0.095325065170683   0.110924117430694   1.0000000
B2   B   0.190782035225581   0.237512729307541   0.113181275326806   1.0000000
B2   B   0.190795160920459   0.380855681942322   0.114991892051350   1.0000000
B2   B   0.189247408372872   0.523636210806737   0.113969298702417   1.0000000
B2   B   0.188673528372177   0.665832420759336   0.111603580283748   1.0000000
B2   B   0.188473385000707   0.808121905652066   0.110465195430971   1.0000000
B2   B   0.331587350158226   0.950430843716227   0.109627485956643   1.0000000
B2   B   0.331705357898844   0.092563817309741   0.110511509328988   1.0000000
B2   B   0.335084090993378   0.237886117004663   0.111089629169301   1.0000000
B2   B   0.332844283880854   0.378294619653687   0.111279936856911   1.0000000
B2   B   0.332578812924537   0.523705311368714   0.113253612056348   1.0000000
B2   B   0.332465433202651   0.666575860537778   0.113041091683842   1.0000000
B2   B   0.331737289503420   0.808564090554199   0.110973262376914   1.0000000
B2   B   0.475001764581101   0.951494895622373   0.109541842513241   1.0000000
B2   B   0.474715147928662   0.091824032188066   0.110033621137859   1.0000000
B2   B   0.473971123899572   0.230982731537513   0.116121932429108   1.0000000
B2   B   0.482961819577122   0.375988827914454   0.107578458446947   1.0000000
B2   B   0.476584371957484   0.671332558949620   0.113483041185074   1.0000000
B2   B   0.475484962770197   0.811154383753893   0.114076967987882   1.0000000
B2   B   0.619057033424665   0.954081627745762   0.110755864858586   1.0000000
B2   B   0.618536930892236   0.094465056646976   0.108887325569057   1.0000000
B2   B   0.617974820941932   0.234782947617084   0.113239922160307   1.0000000
B2   B   0.616209306195090   0.373802645210522   0.117325988459669   1.0000000
B2   B   0.622939749962697   0.677428453484279   0.112397109443745   1.0000000
B2   B   0.620058394311355   0.814434893439137   0.116342012352402   1.0000000
B2   B   0.763246114029502   0.955369813188154   0.111323561784332   1.0000000
B2   B   0.762405303411246   0.096531169661505   0.109130435282085   1.0000000
B2   B   0.761699375552103   0.238073979413533   0.109954217962966   1.0000000
B2   B   0.760165526961765   0.379755519142934   0.112821391563613   1.0000000
B2   B   0.752828516437094   0.521862668688061   0.110951109505834   1.0000000
B2   B   0.763994351522548   0.670011795159089   0.110371321801164   1.0000000
B2   B   0.764946796116157   0.814743070137792   0.114601696357597   1.0000000
Ge2   Ge   0.489695885713755   0.521670457598775   0.070911764747968   1.0000000
N2   N   0.953318289983488   0.906563488271342   0.110867469553804   1.0000000
N2   N   0.953742754086322   0.049657018267111   0.109797022066153   1.0000000
N2   N   0.953267365020653   0.191875539798752   0.110136313827762   1.0000000
N2   N   0.952258156194628   0.334012217074458   0.110503573087302   1.0000000
N2   N   0.949639909415353   0.476039315071996   0.111156716671222   1.0000000
N2   N   0.949362967142662   0.618022222796259   0.111455453538196   1.0000000
N2   N   0.950673726903541   0.761301841695830   0.111206883279180   1.0000000
N2   N   0.094075971583585   0.903964564789223   0.110620760914337   1.0000000
N2   N   0.095962090781523   0.048386250042858   0.110651629790791   1.0000000
N2   N   0.095889195965226   0.191048409400237   0.111908144127699   1.0000000
N2   N   0.095634337496622   0.333958828927916   0.113108133983185   1.0000000
N2   N   0.093966854831242   0.476338502976941   0.112458139129038   1.0000000
N2   N   0.093211144748640   0.618388804297140   0.111317991964245   1.0000000
N2   N   0.093177256271439   0.760710345448043   0.110868824975440   1.0000000
N2   N   0.236381334979931   0.903151727395242   0.109993303516817   1.0000000
N2   N   0.236902348096875   0.046044616612641   0.110133795376488   1.0000000
N2   N   0.239382598368841   0.190801698530898   0.111768558484193   1.0000000
N2   N   0.237979351692516   0.332153026056852   0.115184970207555   1.0000000
N2   N   0.237446714530864   0.476291282340147   0.115862926949862   1.0000000
N2   N   0.237064475503073   0.618778573836241   0.112816811513135   1.0000000
N2   N   0.236410781097961   0.760858243893159   0.110725207192752   1.0000000
N2   N   0.379616918522929   0.903460642179192   0.109778511608136   1.0000000
N2   N   0.379422547390893   0.045151055302389   0.109668441762590   1.0000000
N2   N   0.379460847737390   0.187157304232739   0.112053846251216   1.0000000
N2   N   0.385057376186601   0.334282214788402   0.108630183704583   1.0000000
N2   N   0.376045721927394   0.472230264211764   0.109122804298287   1.0000000
N2   N   0.381113829874481   0.619619541808631   0.112748971975038   1.0000000
N2   N   0.380032816661835   0.761781058537502   0.112668875593013   1.0000000
N2   N   0.523558739885732   0.905592025692368   0.111174329068969   1.0000000
N2   N   0.523139849115689   0.045872726635356   0.108525587133920   1.0000000
N2   N   0.522745328792999   0.185708500803418   0.113059777465654   1.0000000
N2   N   0.522170466993397   0.323444157426834   0.120797607004265   1.0000000
N2   N   0.552163047436317   0.466689592793782   0.092316222306669   1.0000000
N2   N   0.530115738567190   0.631610455117087   0.107813139149422   1.0000000
N2   N   0.524314347100755   0.765737873938436   0.117424948491304   1.0000000
N2   N   0.667863247259428   0.908418275665579   0.112632483534153   1.0000000
N2   N   0.667078523046457   0.048489409932764   0.108849813107749   1.0000000
N2   N   0.666524729400691   0.189020524443632   0.109915805775062   1.0000000
N2   N   0.665815316268489   0.329272756874513   0.116025352466366   1.0000000
N2   N   0.656554133462683   0.466598531166126   0.113145772205319   1.0000000
N2   N   0.673288405179899   0.636268346458750   0.106154291277427   1.0000000
N2   N   0.670589135487930   0.770652230428094   0.118107336448853   1.0000000
N2   N   0.811857534322047   0.908922531988662   0.112071722736026   1.0000000
N2   N   0.810743235977886   0.049906338935596   0.109447874850136   1.0000000
N2   N   0.810000250733845   0.191352932961005   0.109275295577944   1.0000000
N2   N   0.808860032878867   0.333157296897507   0.110708721908290   1.0000000
N2   N   0.803958211137001   0.475057025490694   0.112064808614380   1.0000000
N2   N   0.805903081916286   0.617875523839904   0.110534868232921   1.0000000
N2   N   0.811265151520102   0.765863596055490   0.112639685316566   1.0000000


