data_1
_audit_creation_method   'vasp2cif'
_cell_length_a    14.93631414619966
_cell_length_b    14.936314146199727
_cell_length_c    13.341276283792837
_cell_angle_alpha    90.0
_cell_angle_beta    90.0
_cell_angle_gamma    119.99999999999984

_symmetry_space_group_name_H-M    'P 1'
loop_
_atom_site_label
_atom_site_type_symbol
_atom_site_fract_x
_atom_site_fract_y
_atom_site_fract_z
_atom_site_occupancy
N2   N   0.441554569345898   0.387443951339613   0.375000000000000   1.0000000
N2   N   0.111104734614744   0.055566138117978   0.125051410713540   1.0000000
N2   N   0.611138677401408   0.555538483524915   0.124879989252198   1.0000000
N2   N   0.444464475055092   0.055586710227514   0.125042864677046   1.0000000
N2   N   0.944492245615670   0.555576064106180   0.125064059402261   1.0000000
N2   N   0.777741305868217   0.055537319600773   0.125059800196303   1.0000000
N2   N   0.111157611063627   0.722245472198478   0.624974694792689   1.0000000
N2   N   0.444464475055092   0.722211098160913   0.624957135322954   1.0000000
N2   N   0.277748434265405   0.222235124311031   0.624976171655239   1.0000000
N2   N   0.777799782232834   0.722217767564263   0.624937100493204   1.0000000
N2   N   0.611114631683692   0.222259951636182   0.624860748933272   1.0000000
N2   N   0.944406160073559   0.222204649095338   0.624987769375273   1.0000000
N2   N   0.277812876260706   0.722228636886637   0.125008446556076   1.0000000
N2   N   0.111049555816258   0.222191444574790   0.124957896706339   1.0000000
N2   N   0.444479409755316   0.222264614948540   0.124882298455371   1.0000000
N2   N   0.611114631683692   0.722188013380846   0.125139251066728   1.0000000
N2   N   0.944492245615670   0.722249514842819   0.125064059402261   1.0000000
N2   N   0.777762699701668   0.222228996726939   0.125089837867012   1.0000000
N2   N   0.111146745972360   0.888921084623878   0.624983210860208   1.0000000
N2   N   0.444460419818982   0.888896876576159   0.624976087286122   1.0000000
N2   N   0.277748434265405   0.388846643287702   0.624976171655239   1.0000000
N2   N   0.611138677401408   0.388933527209822   0.625120010747802   1.0000000
N2   N   0.777762699701668   0.888867036308058   0.624910162132988   1.0000000
N2   N   0.944456782164872   0.388893763857011   0.624954988309829   1.0000000
N2   N   0.111104734614744   0.388871929830095   0.125051410713540   1.0000000
N2   N   0.277812876260706   0.888917572707405   0.125008446556076   1.0000000
N2   N   0.611099572448434   0.888871964690101   0.125071031441143   1.0000000
N2   N   0.444387520324668   0.388860426828999   0.123845391125464   1.0000000
N2   N   0.944456782164872   0.888896351641190   0.125045011690171   1.0000000
N2   N   0.777799782232834   0.388915348001898   0.125062899506796   1.0000000
N2   N   0.277801812918536   0.555537648822247   0.624974283758371   1.0000000
N2   N   0.111104734614744   0.055566138117978   0.624948589286454   1.0000000
N2   N   0.611138677401408   0.555538483524915   0.625120010747802   1.0000000
N2   N   0.444464475055092   0.055586710227514   0.624957135322954   1.0000000
N2   N   0.944492245615670   0.555576064106180   0.624935940597739   1.0000000
N2   N   0.111146745972360   0.555558994681804   0.125016789139791   1.0000000
N2   N   0.777741305868217   0.055537319600773   0.624940199803698   1.0000000
N2   N   0.277801812918536   0.055597497429625   0.125025716241629   1.0000000
N2   N   0.444479409755316   0.555548128140112   0.124882298455371   1.0000000
N2   N   0.777829582898710   0.555581458116022   0.125055178379503   1.0000000
N2   N   0.611099572448434   0.055560941091662   0.125071031441143   1.0000000
N2   N   0.444479409755316   0.555548128140112   0.625117701544628   1.0000000
N2   N   0.944406160073559   0.055534844311556   0.125012230624728   1.0000000
N2   N   0.277812876260706   0.722228636886637   0.624991553443924   1.0000000
N2   N   0.111049555816258   0.222191444574790   0.625042103293662   1.0000000
N2   N   0.444479409755316   0.222264614948540   0.625117701544628   1.0000000
N2   N   0.611114631683692   0.722188013380846   0.624860748933272   1.0000000
N2   N   0.944492245615670   0.722249514842819   0.624935940597739   1.0000000
N2   N   0.777762699701668   0.222228996726939   0.624910162132988   1.0000000
N2   N   0.111157611063627   0.722245472198478   0.125025305207310   1.0000000
N2   N   0.444464475055092   0.722211098160913   0.125042864677046   1.0000000
N2   N   0.277748434265405   0.222235124311031   0.125023828344761   1.0000000
N2   N   0.777799782232834   0.722217767564263   0.125062899506796   1.0000000
N2   N   0.611114631683692   0.222259951636182   0.125139251066728   1.0000000
N2   N   0.944406160073559   0.222204649095338   0.125012230624728   1.0000000
N2   N   0.111104734614744   0.388871929830095   0.624948589286454   1.0000000
N2   N   0.277812876260706   0.888917572707405   0.624991553443924   1.0000000
N2   N   0.611099572448434   0.888871964690101   0.624928968558858   1.0000000
N2   N   0.444387520324668   0.388860426828999   0.626154608874536   1.0000000
N2   N   0.944456782164872   0.888896351641190   0.624954988309829   1.0000000
N2   N   0.111146745972360   0.888921084623878   0.125016789139791   1.0000000
N2   N   0.777799782232834   0.388915348001898   0.624937100493204   1.0000000
N2   N   0.444460419818982   0.888896876576159   0.125023912713878   1.0000000
N2   N   0.277748434265405   0.388846643287702   0.125023828344761   1.0000000
N2   N   0.277801812918536   0.555537648822247   0.125025716241629   1.0000000
N2   N   0.611138677401408   0.388933527209822   0.124879989252198   1.0000000
N2   N   0.777762699701668   0.888867036308058   0.125089837867012   1.0000000
N2   N   0.944456782164872   0.388893763857011   0.125045011690171   1.0000000
N2   N   0.111146745972360   0.555558994681804   0.624983210860208   1.0000000
N2   N   0.277801812918536   0.055597497429625   0.624974283758371   1.0000000
N2   N   0.777829582898710   0.555581458116022   0.624944821620497   1.0000000
N2   N   0.611099572448434   0.055560941091662   0.624928968558858   1.0000000
N2   N   0.944406160073559   0.055534844311556   0.624987769375273   1.0000000
N2   N   0.053236740934888   0.109690503931445   0.375000000000000   1.0000000
N2   N   0.555415176234144   0.601260055764177   0.375000000000000   1.0000000
N2   N   0.389445526879119   0.115177006396897   0.375000000000000   1.0000000
N2   N   0.892482168897458   0.612907751115401   0.375000000000000   1.0000000
N2   N   0.720959803832334   0.111358329286214   0.375000000000000   1.0000000
N2   N   0.055591977170200   0.777795230586923   0.875000000000000   1.0000000
N2   N   0.388925693762970   0.777797472200860   0.875000000000000   1.0000000
N2   N   0.222258796616415   0.277796064974872   0.875000000000000   1.0000000
N2   N   0.722259978667640   0.777794669877488   0.875000000000000   1.0000000
N2   N   0.555595475075466   0.277798276539744   0.875000000000000   1.0000000
N2   N   0.888926687126789   0.277799461475224   0.875000000000000   1.0000000
N2   N   0.224083516530449   0.778708424931893   0.375000000000000   1.0000000
N2   N   0.053236740934888   0.276879570336771   0.375000000000000   1.0000000
N2   N   0.385441840453698   0.280770707441982   0.375000000000000   1.0000000
N2   N   0.555492384667563   0.773884107735178   0.375000000000000   1.0000000
N2   N   0.889884753725612   0.777817939074387   0.375000000000000   1.0000000
N2   N   0.721276158763892   0.279591872855349   0.375000000000000   1.0000000
N2   N   0.055590315466300   0.944459367649658   0.875000000000000   1.0000000
N2   N   0.388925693762970   0.944461554895445   0.875000000000000   1.0000000
N2   N   0.222257260058257   0.444464995246472   0.875000000000000   1.0000000
N2   N   0.555599095435288   0.444466214384308   0.875000000000000   1.0000000
N2   N   0.722257252033216   0.944460989511585   0.875000000000000   1.0000000
N2   N   0.888929321690274   0.444466246874642   0.875000000000000   1.0000000
N2   N   0.055655608615897   0.444432816411804   0.375000000000000   1.0000000
N2   N   0.223530647905560   0.945934078477299   0.375000000000000   1.0000000
N2   N   0.555569515047480   0.944451424190408   0.375000000000000   1.0000000
N2   N   0.385441840453698   0.438004466345052   0.375000000000000   1.0000000
N2   N   0.887440219880442   0.942996440592876   0.375000000000000   1.0000000
N2   N   0.724771084580917   0.447583895600521   0.375000000000000   1.0000000
N2   N   0.222255750767515   0.611130543894463   0.875000000000000   1.0000000
N2   N   0.055591425925877   0.111126464910799   0.875000000000000   1.0000000
N2   N   0.555595475075466   0.611130531869049   0.875000000000000   1.0000000
N2   N   0.388924676031702   0.111126063479565   0.875000000000000   1.0000000
N2   N   0.888930483977570   0.611131908655456   0.875000000000000   1.0000000
N2   N   0.057703834046342   0.611958892241902   0.375000000000000   1.0000000
N2   N   0.722257252033216   0.111129595854967   0.875000000000000   1.0000000
N2   N   0.221477370570800   0.111440243432690   0.375000000000000   1.0000000
N2   N   0.389445526879119   0.607601853815558   0.375000000000000   1.0000000
N2   N   0.724771084580917   0.610520522313733   0.375000000000000   1.0000000
N2   N   0.555492384667563   0.114941610265727   0.375000000000000   1.0000000
N2   N   0.388924676031702   0.611131945885481   0.875000000000000   1.0000000
N2   N   0.886892042837471   0.110112688085406   0.375000000000000   1.0000000
N2   N   0.222256961308288   0.777795147320808   0.875000000000000   1.0000000
N2   N   0.055591425925877   0.277798294348414   0.875000000000000   1.0000000
N2   N   0.388926006972421   0.277792448121989   0.875000000000000   1.0000000
N2   N   0.555591383978678   0.777795477915203   0.875000000000000   1.0000000
N2   N   0.888929321690274   0.777796408148969   0.875000000000000   1.0000000
N2   N   0.722259978667640   0.277798642123480   0.875000000000000   1.0000000
N2   N   0.057703834046342   0.779078275137775   0.375000000000000   1.0000000
N2   N   0.390058581653532   0.777078897613909   0.375000000000000   1.0000000
N2   N   0.217992469192375   0.275662901262855   0.375000000000000   1.0000000
N2   N   0.721276158763892   0.775017619241885   0.375000000000000   1.0000000
N2   N   0.555415176234144   0.287488453803304   0.375000000000000   1.0000000
N2   N   0.887440219880442   0.277777112620908   0.375000000000000   1.0000000
N2   N   0.055590315466300   0.444464281149971   0.875000000000000   1.0000000
N2   N   0.222255750767515   0.944458540206395   0.875000000000000   1.0000000
N2   N   0.555590372797347   0.944461853065335   0.875000000000000   1.0000000
N2   N   0.388926006972421   0.444466892183768   0.875000000000000   1.0000000
N2   N   0.888926687126789   0.944460558984893   0.875000000000000   1.0000000
N2   N   0.055655608615897   0.944556125537421   0.375000000000000   1.0000000
N2   N   0.722264000502374   0.444466619526441   0.875000000000000   1.0000000
N2   N   0.390058581653532   0.946313017372958   0.375000000000000   1.0000000
N2   N   0.221477370570800   0.443370460471446   0.375000000000000   1.0000000
N2   N   0.223530647905560   0.610929902761596   0.375000000000000   1.0000000
N2   N   0.720959803832334   0.942934807879455   0.375000000000000   1.0000000
N2   N   0.889884753725612   0.445400147984561   0.375000000000000   1.0000000
N2   N   0.055591977170200   0.611130079916613   0.875000000000000   1.0000000
N2   N   0.222257260058257   0.111125598145121   0.875000000000000   1.0000000
N2   N   0.722264000502374   0.611130714309275   0.875000000000000   1.0000000
N2   N   0.555591383978678   0.111129239396811   0.875000000000000   1.0000000
N2   N   0.888925140515733   0.111129236924534   0.875000000000000   1.0000000
B2   B   0.110293153818584   0.055518609837134   0.375000000000000   1.0000000
B2   B   0.614908255949362   0.548942027372383   0.375000000000000   1.0000000
B2   B   0.444379041905213   0.058449168576517   0.375000000000000   1.0000000
B2   B   0.947000550764837   0.556556588977195   0.375000000000000   1.0000000
B2   B   0.775925481758582   0.054629407545959   0.375000000000000   1.0000000
B2   B   0.111151696509097   0.722242514921210   0.875000000000000   1.0000000
B2   B   0.444469372997886   0.722222239491872   0.875000000000000   1.0000000
B2   B   0.277832539245109   0.222256326417425   0.875000000000000   1.0000000
B2   B   0.777809397673889   0.722228913811282   0.875000000000000   1.0000000
B2   B   0.611132174365159   0.222249787058784   0.875000000000000   1.0000000
B2   B   0.944497166883133   0.222248276532349   0.875000000000000   1.0000000
B2   B   0.279062149521708   0.722219265673179   0.375000000000000   1.0000000
B2   B   0.107854912129084   0.220594122731206   0.375000000000000   1.0000000
B2   B   0.443415354621677   0.227712711492489   0.375000000000000   1.0000000
B2   B   0.610128090318651   0.716134311429743   0.375000000000000   1.0000000
B2   B   0.947000550764837   0.723777295120978   0.375000000000000   1.0000000
B2   B   0.776275051519790   0.222668476209021   0.375000000000000   1.0000000
B2   B   0.111154437344169   0.888915448901333   0.875000000000000   1.0000000
B2   B   0.444472128707730   0.888902731020533   0.875000000000000   1.0000000
B2   B   0.277832539245109   0.388909546161012   0.875000000000000   1.0000000
B2   B   0.611126151229036   0.388912122161804   0.875000000000000   1.0000000
B2   B   0.777816526907899   0.888903201198583   0.875000000000000   1.0000000
B2   B   0.944490631602326   0.388911855019704   0.875000000000000   1.0000000
B2   B   0.110293153818584   0.388107877314779   0.375000000000000   1.0000000
B2   B   0.279062149521708   0.890176217181858   0.375000000000000   1.0000000
B2   B   0.610034522500188   0.886597219289087   0.375000000000000   1.0000000
B2   B   0.944544530018896   0.888850952151675   0.375000000000000   1.0000000
B2   B   0.778898611320994   0.390276900507772   0.375000000000000   1.0000000
B2   B   0.277816931801533   0.555564392525016   0.875000000000000   1.0000000
B2   B   0.111163287195852   0.055586704533740   0.875000000000000   1.0000000
B2   B   0.611126151229036   0.555547362400567   0.875000000000000   1.0000000
B2   B   0.444469372997886   0.055580466839350   0.875000000000000   1.0000000
B2   B   0.944485408242861   0.555576087999002   0.875000000000000   1.0000000
B2   B   0.112516928258950   0.555710224188770   0.375000000000000   1.0000000
B2   B   0.777819866525919   0.055576599929623   0.875000000000000   1.0000000
B2   B   0.278310570713077   0.057346458920948   0.375000000000000   1.0000000
B2   B   0.443415354621677   0.549035976462525   0.375000000000000   1.0000000
B2   B   0.782756303993126   0.558044818663230   0.375000000000000   1.0000000
B2   B   0.610034522500188   0.056770636544436   0.375000000000000   1.0000000
B2   B   0.444468736759821   0.555548149580131   0.875000000000000   1.0000000
B2   B   0.942358210334459   0.054216646234740   0.375000000000000   1.0000000
B2   B   0.277812370866203   0.722234524328789   0.875000000000000   1.0000000
B2   B   0.111170878393604   0.222252105863466   0.875000000000000   1.0000000
B2   B   0.444468736759821   0.222253920513033   0.875000000000000   1.0000000
B2   B   0.611132174365159   0.722215720639704   0.875000000000000   1.0000000
B2   B   0.944485408242861   0.722242653577187   0.875000000000000   1.0000000
B2   B   0.777816526907899   0.222246659042643   0.875000000000000   1.0000000
B2   B   0.113159915600571   0.723246624466950   0.375000000000000   1.0000000
B2   B   0.444379041905213   0.719263206662033   0.375000000000000   1.0000000
B2   B   0.274912190459484   0.222314596840850   0.375000000000000   1.0000000
B2   B   0.778898611320994   0.721955044146558   0.375000000000000   1.0000000
B2   B   0.610128090318651   0.227327112222235   0.375000000000000   1.0000000
B2   B   0.942358210334459   0.221474897433055   0.375000000000000   1.0000000
B2   B   0.111163287195852   0.388909915995441   0.875000000000000   1.0000000
B2   B   0.277812370866203   0.888911179870735   0.875000000000000   1.0000000
B2   B   0.611138784861991   0.888897389769705   0.875000000000000   1.0000000
B2   B   0.444475983310369   0.388904658321849   0.875000000000000   1.0000000
B2   B   0.944490631602326   0.888912109915950   0.875000000000000   1.0000000
B2   B   0.112516928258950   0.890140037403509   0.375000000000000   1.0000000
B2   B   0.777809397673889   0.388913817195928   0.875000000000000   1.0000000
B2   B   0.444681026436253   0.889007179884787   0.375000000000000   1.0000000
B2   B   0.274912190459484   0.385930926951963   0.375000000000000   1.0000000
B2   B   0.278310570713077   0.554297445125465   0.375000000000000   1.0000000
B2   B   0.614908255949362   0.399299561910307   0.375000000000000   1.0000000
B2   B   0.776275051519790   0.886939908644098   0.375000000000000   1.0000000
B2   B   0.944544530018896   0.389026911200543   0.375000000000000   1.0000000
B2   B   0.111154437344169   0.555572321776165   0.875000000000000   1.0000000
B2   B   0.277816931801533   0.055585872609859   0.875000000000000   1.0000000
B2   B   0.777805070550546   0.555569201941940   0.875000000000000   1.0000000
B2   B   0.611138784861991   0.055574728425607   0.875000000000000   1.0000000
B2   B   0.944497166883133   0.055582223684119   0.875000000000000   1.0000000
B2   B   0.055553765291319   0.111124246440217   0.124994064438503   1.0000000
B2   B   0.555510623188519   0.611007483638443   0.124940498431156   1.0000000
B2   B   0.388929543193617   0.111216577111589   0.125034390838858   1.0000000
B2   B   0.888932485608040   0.611132909470692   0.124972396730368   1.0000000
B2   B   0.722198736818198   0.111106722662378   0.125015578010174   1.0000000
B2   B   0.055626723013773   0.777826890608026   0.625001622514569   1.0000000
B2   B   0.388920647940275   0.777768947846532   0.624984830909149   1.0000000
B2   B   0.222230979352603   0.277782156342966   0.624996288037580   1.0000000
B2   B   0.722207703672976   0.777746212677016   0.624996910126764   1.0000000
B2   B   0.555510623188519   0.277836472883409   0.625059501568844   1.0000000
B2   B   0.888891361304276   0.277778239017908   0.624998646971648   1.0000000
B2   B   0.222287708197988   0.777810520765662   0.124995715208568   1.0000000
B2   B   0.055553765291319   0.277762852184437   0.124994064438503   1.0000000
B2   B   0.388936859947724   0.277925404250103   0.124920669910904   1.0000000
B2   B   0.555541205757470   0.777734461553081   0.125032166993251   1.0000000
B2   B   0.888915365452646   0.777793141593796   0.124992866408627   1.0000000
B2   B   0.722207703672976   0.277794824329291   0.125003089873237   1.0000000
B2   B   0.055598280475712   0.944489753849440   0.624991441836822   1.0000000
B2   B   0.388920647940275   0.944485033427078   0.624984830909149   1.0000000
B2   B   0.222267013698088   0.444404222725959   0.624934540322523   1.0000000
B2   B   0.555336009398936   0.444334671366129   0.624918398008762   1.0000000
B2   B   0.722198736818198   0.944425347489157   0.624984421989826   1.0000000
B2   B   0.888915365452646   0.444455557192186   0.625007133591372   1.0000000
B2   B   0.055598280475712   0.444441859959600   0.125008558163177   1.0000000
B2   B   0.222285595953569   0.944521372287525   0.125010489280839   1.0000000
B2   B   0.555545752264332   0.944439542798826   0.125015064577832   1.0000000
B2   B   0.388936859947724   0.444344789030957   0.124920669910904   1.0000000
B2   B   0.888891361304276   0.944446455619703   0.125001353028352   1.0000000
B2   B   0.722166393559018   0.444441433216049   0.124903305573262   1.0000000
B2   B   0.222285595953569   0.611097556999380   0.624989510719161   1.0000000
B2   B   0.055553765291319   0.111124246440217   0.625005935561497   1.0000000
B2   B   0.555510623188519   0.611007483638443   0.625059501568844   1.0000000
B2   B   0.388929543193617   0.111216577111589   0.624965609161142   1.0000000
B2   B   0.888932485608040   0.611132909470692   0.625027603269632   1.0000000
B2   B   0.055626723013773   0.611133165739090   0.124998377485430   1.0000000
B2   B   0.722198736818198   0.111106722662378   0.624984421989826   1.0000000
B2   B   0.222267013698088   0.111196124305464   0.125065459677476   1.0000000
B2   B   0.388929543193617   0.611046299415372   0.125034390838858   1.0000000
B2   B   0.722166393559018   0.611058293676306   0.124903305573262   1.0000000
B2   B   0.555541205757470   0.111140077537723   0.125032166993251   1.0000000
B2   B   0.388929543193617   0.611046299415372   0.624965609161142   1.0000000
B2   B   0.888873306561412   0.111103319947378   0.124992567604109   1.0000000
B2   B   0.222287708197988   0.777810520765662   0.625004284791433   1.0000000
B2   B   0.055553765291319   0.277762852184437   0.625005935561497   1.0000000
B2   B   0.388936859947724   0.277925404250103   0.625079330089095   1.0000000
B2   B   0.555541205757470   0.777734461553081   0.624967833006749   1.0000000
B2   B   0.888915365452646   0.777793141593796   0.625007133591372   1.0000000
B2   B   0.722207703672976   0.277794824329291   0.624996910126764   1.0000000
B2   B   0.055626723013773   0.777826890608026   0.124998377485430   1.0000000
B2   B   0.388920647940275   0.777768947846532   0.125015169090851   1.0000000
B2   B   0.222230979352603   0.277782156342966   0.125003711962419   1.0000000
B2   B   0.722207703672976   0.777746212677016   0.125003089873237   1.0000000
B2   B   0.555510623188519   0.277836472883409   0.124940498431156   1.0000000
B2   B   0.888891361304276   0.277778239017908   0.125001353028352   1.0000000
B2   B   0.055598280475712   0.444441859959600   0.624991441836822   1.0000000
B2   B   0.222285595953569   0.944521372287525   0.624989510719161   1.0000000
B2   B   0.555545752264332   0.944439542798826   0.624984935422161   1.0000000
B2   B   0.388936859947724   0.444344789030957   0.625079330089095   1.0000000
B2   B   0.888891361304276   0.944446455619703   0.624998646971648   1.0000000
B2   B   0.055598280475712   0.944489753849440   0.125008558163177   1.0000000
B2   B   0.722166393559018   0.444441433216049   0.625096694426738   1.0000000
B2   B   0.388920647940275   0.944485033427078   0.125015169090851   1.0000000
B2   B   0.222267013698088   0.444404222725959   0.125065459677476   1.0000000
B2   B   0.222285595953569   0.611097556999380   0.125010489280839   1.0000000
B2   B   0.555336009398936   0.444334671366129   0.125081601991238   1.0000000
B2   B   0.722198736818198   0.944425347489157   0.125015578010174   1.0000000
B2   B   0.888915365452646   0.444455557192186   0.124992866408627   1.0000000
B2   B   0.055626723013773   0.611133165739090   0.625001622514569   1.0000000
B2   B   0.222267013698088   0.111196124305464   0.624934540322523   1.0000000
B2   B   0.722166393559018   0.611058293676306   0.625096694426738   1.0000000
B2   B   0.555541205757470   0.111140077537723   0.624967833006749   1.0000000
B2   B   0.888873306561412   0.111103319947378   0.625007432395892   1.0000000


