data_1
_audit_creation_method   'vasp2cif'
_cell_length_a    17.52789999999977
_cell_length_b    17.52789999999977
_cell_length_c    15.0
_cell_angle_alpha    90.0
_cell_angle_beta    90.0
_cell_angle_gamma    119.99999999999916

_symmetry_space_group_name_H-M    'P 1'
loop_
_atom_site_label
_atom_site_type_symbol
_atom_site_fract_x
_atom_site_fract_y
_atom_site_fract_z
_atom_site_occupancy
Al2   Al   0.445522159369835   0.508476282308918   0.111207915514167   1.0000000
B2   B   0.904850910952010   0.952499658352880   0.110997049358570   1.0000000
B2   B   0.906105893681635   0.096125388572864   0.111036654093642   1.0000000
B2   B   0.906491307343418   0.238960000517208   0.111095892163354   1.0000000
B2   B   0.906105893681635   0.381409198799768   0.111036654093642   1.0000000
B2   B   0.904850910952010   0.523781657847124   0.110997049358570   1.0000000
B2   B   0.903513793118108   0.666147540651915   0.111055896069813   1.0000000
B2   B   0.903513793118108   0.808796657714194   0.111055896069813   1.0000000
B2   B   0.046815714759654   0.951568136652953   0.111001893694320   1.0000000
B2   B   0.047988181949529   0.095054837389354   0.111002132180303   1.0000000
B2   B   0.049549412704494   0.239042118295029   0.111031928327724   1.0000000
B2   B   0.049549412704494   0.381937699656465   0.111031928327724   1.0000000
B2   B   0.047988181949529   0.524363749808170   0.111002132180303   1.0000000
B2   B   0.046815714759654   0.666679694910697   0.111001893694320   1.0000000
B2   B   0.046542283045054   0.808987199924529   0.110985721982638   1.0000000
B2   B   0.189640988343574   0.951476033786361   0.111000817292005   1.0000000
B2   B   0.189788099922929   0.093550233597289   0.111055759746178   1.0000000
B2   B   0.191136935675857   0.237064170961569   0.111020927067226   1.0000000
B2   B   0.193660610120454   0.382545507683727   0.111036788886472   1.0000000
B2   B   0.191136935675857   0.525503169962282   0.111020927067226   1.0000000
B2   B   0.189788099922929   0.667668271573635   0.111055759746178   1.0000000
B2   B   0.189640988343574   0.809597071361218   0.111000817292005   1.0000000
B2   B   0.332965304094591   0.952198710448797   0.111012315295780   1.0000000
B2   B   0.332946002500845   0.093062824655081   0.111066009201539   1.0000000
B2   B   0.332694708029254   0.233192296612250   0.111038290943712   1.0000000
B2   B   0.334143718389999   0.373540471079254   0.111152920719660   1.0000000
B2   B   0.334143718389999   0.532033652557738   0.111152920719660   1.0000000
B2   B   0.332694708029254   0.670932816664004   0.111038290943712   1.0000000
B2   B   0.332946002500845   0.811313583092764   0.111066009201539   1.0000000
B2   B   0.476604605497210   0.953537937604986   0.111005414892226   1.0000000
B2   B   0.476604605497210   0.094497073139223   0.111005414892226   1.0000000
B2   B   0.476644529315521   0.235329581763251   0.111027058093129   1.0000000
B2   B   0.477813692141063   0.376443871388463   0.111031447148735   1.0000000
B2   B   0.477813692141063   0.672800225999607   0.111031447148735   1.0000000
B2   B   0.476644529315521   0.812745352799276   0.111027058093129   1.0000000
B2   B   0.620151529462050   0.953897193796951   0.111006818814778   1.0000000
B2   B   0.620149712611615   0.095789203151299   0.110985378273410   1.0000000
B2   B   0.620151529462050   0.237684740912098   0.111006818814778   1.0000000
B2   B   0.620037100480225   0.379812084337052   0.111022855483821   1.0000000
B2   B   0.617013100724941   0.521361600052475   0.111074503591791   1.0000000
B2   B   0.617013100724941   0.667081905920461   0.111074503591791   1.0000000
B2   B   0.620037100480225   0.811655421390173   0.111022855483821   1.0000000
B2   B   0.762961439846045   0.953530194116293   0.111001171405443   1.0000000
B2   B   0.763337972622566   0.096215476999696   0.111035499523561   1.0000000
B2   B   0.763337972622566   0.238551189313867   0.111035499523561   1.0000000
B2   B   0.762961439846045   0.380861650976752   0.111001171405443   1.0000000
B2   B   0.761556365166427   0.523165570242505   0.111054883131658   1.0000000
B2   B   0.759573542865392   0.665501974056690   0.111112797719506   1.0000000
B2   B   0.761556365166427   0.809821200171923   0.111054883131658   1.0000000
N2   N   0.951721152841440   0.904234413573153   0.110989069815447   1.0000000
N2   N   0.952975297468529   0.047889930128912   0.110965345603309   1.0000000
N2   N   0.954288159522903   0.191543143940184   0.111031536474392   1.0000000
N2   N   0.954288159522903   0.334171997700717   0.111031536474392   1.0000000
N2   N   0.952975297468529   0.476512349457608   0.110965345603309   1.0000000
N2   N   0.951721152841440   0.618915432943282   0.110989069815447   1.0000000
N2   N   0.951349370274497   0.761389031974754   0.111015685039663   1.0000000
N2   N   0.094434144954365   0.904095217244472   0.110957211963895   1.0000000
N2   N   0.094810117037209   0.046769205510568   0.110986515257328   1.0000000
N2   N   0.096206529862871   0.190496530544519   0.110972776148867   1.0000000
N2   N   0.098186167897974   0.334807430785988   0.110983058663461   1.0000000
N2   N   0.096206529862871   0.477138692992354   0.110972776148867   1.0000000
N2   N   0.094810117037209   0.619469605201644   0.110986515257328   1.0000000
N2   N   0.094434144954365   0.761769332940897   0.110957211963895   1.0000000
N2   N   0.237607021800071   0.904518713515538   0.110959494129965   1.0000000
N2   N   0.237616673758548   0.046342357082877   0.111022407787709   1.0000000
N2   N   0.237772220353606   0.188496665633797   0.111017882742817   1.0000000
N2   N   0.240305435761479   0.333041761966980   0.111021116081131   1.0000000
N2   N   0.240305435761479   0.478692367468492   0.111021116081131   1.0000000
N2   N   0.237772220353606   0.620704248394804   0.111017882742817   1.0000000
N2   N   0.237616673758548   0.762703010350673   0.111022407787709   1.0000000
N2   N   0.381174809400348   0.905873052135782   0.110995373399827   1.0000000
N2   N   0.381174809400348   0.046730450939569   0.110995373399827   1.0000000
N2   N   0.381130086546821   0.187348446068105   0.111027671055091   1.0000000
N2   N   0.381053600672741   0.327248793812553   0.110992969716433   1.0000000
N2   N   0.381053600672741   0.625233500535184   0.110992969716433   1.0000000
N2   N   0.381130086546821   0.765210334153719   0.111027671055091   1.0000000
N2   N   0.524798779319320   0.907142972350076   0.110987164772553   1.0000000
N2   N   0.524806489868333   0.048116735993670   0.110956016359033   1.0000000
N2   N   0.524798779319320   0.189084500644240   0.110987164772553   1.0000000
N2   N   0.524901411964795   0.329608246196347   0.110986319441797   1.0000000
N2   N   0.523041183601821   0.469415969537380   0.111022216014707   1.0000000
N2   N   0.523041183601821   0.625053907739436   0.111022216014707   1.0000000
N2   N   0.524901411964795   0.766721859443451   0.110986319441797   1.0000000
N2   N   0.667940308408537   0.906666045364589   0.110983234572566   1.0000000
N2   N   0.668112146458814   0.048811174854627   0.110974525433229   1.0000000
N2   N   0.668112146458814   0.190727953723194   0.110974525433229   1.0000000
N2   N   0.667940308408537   0.332702956718951   0.110983234572566   1.0000000
N2   N   0.666727131508468   0.475031707579268   0.111031342224345   1.0000000
N2   N   0.664141287173340   0.617784990424669   0.111070009738543   1.0000000
N2   N   0.666727131508468   0.763124117604202   0.111031342224345   1.0000000
N2   N   0.809855066753447   0.905309968336889   0.110986741505579   1.0000000
N2   N   0.810962184320829   0.048759904704738   0.110997141400131   1.0000000
N2   N   0.811253365876361   0.191340173997183   0.111042544838131   1.0000000
N2   N   0.810962184320829   0.333629261734103   0.110997141400131   1.0000000
N2   N   0.809855066753447   0.475973792090559   0.110986741505579   1.0000000
N2   N   0.808319930270211   0.618470544182535   0.111071775345946   1.0000000
N2   N   0.808319930270211   0.761278079762671   0.111071775345946   1.0000000


