data_1
_audit_creation_method   'vasp2cif'
_cell_length_a    17.52789999999977
_cell_length_b    17.52789999999977
_cell_length_c    15.0
_cell_angle_alpha    90.0
_cell_angle_beta    90.0
_cell_angle_gamma    119.99999999999916

_symmetry_space_group_name_H-M    'P 1'
loop_
_atom_site_label
_atom_site_type_symbol
_atom_site_fract_x
_atom_site_fract_y
_atom_site_fract_z
_atom_site_occupancy
B2   B   0.904957160024437   0.952570602601194   0.111024688204758   1.0000000
B2   B   0.904885472465139   0.095374231238640   0.111058350533068   1.0000000
B2   B   0.904846335416428   0.238161050473058   0.111051443434521   1.0000000
B2   B   0.904840306951287   0.380937524055898   0.111006843834634   1.0000000
B2   B   0.904895843027628   0.523772987148039   0.111032537402923   1.0000000
B2   B   0.904939758916563   0.666702188792049   0.111094924094441   1.0000000
B2   B   0.904965293729171   0.809658190202892   0.111077009362801   1.0000000
B2   B   0.047523956389482   0.952226056686655   0.111015943806587   1.0000000
B2   B   0.047542141080200   0.095089129644044   0.111024204816485   1.0000000
B2   B   0.047609351178749   0.238072378120553   0.110996421187562   1.0000000
B2   B   0.047591591637847   0.380929774726079   0.110999071085048   1.0000000
B2   B   0.047526153783853   0.523816109346878   0.110990012420364   1.0000000
B2   B   0.047525330133348   0.666659107217488   0.111011272507050   1.0000000
B2   B   0.047582269695851   0.809470193310391   0.111007050737758   1.0000000
B2   B   0.190264120369339   0.952095740496387   0.110980040238530   1.0000000
B2   B   0.190104940374078   0.094640172897170   0.111039117102535   1.0000000
B2   B   0.190149858323444   0.237494080507788   0.110998768491549   1.0000000
B2   B   0.190370615543609   0.380865507815183   0.111007912197913   1.0000000
B2   B   0.190176042387054   0.524031535871729   0.111068073155392   1.0000000
B2   B   0.190124767144966   0.666823026548439   0.111044171108048   1.0000000
B2   B   0.190276397196175   0.809514994385692   0.110983686019901   1.0000000
B2   B   0.333152174676597   0.952257303465524   0.111011384998576   1.0000000
B2   B   0.333045169631212   0.094568503843593   0.111057742230697   1.0000000
B2   B   0.332643826826246   0.236593155472696   0.111007418582470   1.0000000
B2   B   0.333414800160401   0.379040933219206   0.111012580924671   1.0000000
B2   B   0.333471051662926   0.525749660981419   0.111073040769574   1.0000000
B2   B   0.332696434979746   0.667447944118011   0.111091930758306   1.0000000
B2   B   0.333080213859076   0.809873012271223   0.111051259826729   1.0000000
B2   B   0.476139368493546   0.952692806648936   0.111013840890904   1.0000000
B2   B   0.476122738721741   0.094888376482581   0.111032361512276   1.0000000
B2   B   0.475964745565815   0.236870568791038   0.111057474354132   1.0000000
B2   B   0.474585976576457   0.377826632259452   0.110962835621556   1.0000000
B2   B   0.474665779191519   0.668267881879134   0.111006749681400   1.0000000
B2   B   0.476021525116835   0.810586375510435   0.111047656938419   1.0000000
B2   B   0.619214763213452   0.952857266044637   0.111019123567326   1.0000000
B2   B   0.619141661408942   0.095329395885605   0.111034867250765   1.0000000
B2   B   0.619172094441559   0.237855655514977   0.111065696996205   1.0000000
B2   B   0.619244731769002   0.380416405211924   0.111054628984250   1.0000000
B2   B   0.620652547019359   0.524923168117825   0.110996414265343   1.0000000
B2   B   0.620768730565113   0.667329194295017   0.110969532735801   1.0000000
B2   B   0.619346854219049   0.810397032729184   0.110974031388488   1.0000000
B2   B   0.762150228675448   0.952786081412612   0.111000253140816   1.0000000
B2   B   0.762059295644072   0.095443743788361   0.111059236614452   1.0000000
B2   B   0.762031592306501   0.238113137955097   0.111077623815945   1.0000000
B2   B   0.762073665578316   0.380812226026113   0.111072168338238   1.0000000
B2   B   0.762399189020949   0.523807400273571   0.111095142486005   1.0000000
B2   B   0.762558048565286   0.667011193083315   0.111062844012385   1.0000000
B2   B   0.762492903933851   0.810135222671703   0.110996085327126   1.0000000
N2   N   0.952423620291743   0.904808137563348   0.111031246883766   1.0000000
N2   N   0.952437433693432   0.047705969381186   0.111025532928420   1.0000000
N2   N   0.952441987413327   0.190548257325699   0.111028816753936   1.0000000
N2   N   0.952423593314717   0.333341615340901   0.110994025271130   1.0000000
N2   N   0.952401561278790   0.476136742822832   0.110963182243617   1.0000000
N2   N   0.952399194980283   0.618996782978529   0.111034514906160   1.0000000
N2   N   0.952443571783993   0.761914020016080   0.111066133318853   1.0000000
N2   N   0.095117497934342   0.904614731576806   0.110961693749013   1.0000000
N2   N   0.095017691640812   0.047347382861157   0.111015360321432   1.0000000
N2   N   0.095059712840483   0.190285575456763   0.110980393940149   1.0000000
N2   N   0.095159403788532   0.333278593276556   0.110973834194082   1.0000000
N2   N   0.095068830948519   0.476157915439970   0.110997009342288   1.0000000
N2   N   0.095023459158220   0.619027814835176   0.110984468038810   1.0000000
N2   N   0.095122216173213   0.761851640508142   0.110972249620486   1.0000000
N2   N   0.237942250880350   0.904641922944939   0.110961426477475   1.0000000
N2   N   0.237842814214259   0.047185414299622   0.111008851082838   1.0000000
N2   N   0.237592092398021   0.189697194298281   0.111011794915760   1.0000000
N2   N   0.237496167731974   0.332702912370073   0.110975435317933   1.0000000
N2   N   0.237532963651934   0.476166067208533   0.111048070976569   1.0000000
N2   N   0.237635315072627   0.619271386767161   0.111078397370798   1.0000000
N2   N   0.237869253211389   0.762016406316609   0.111009471184153   1.0000000
N2   N   0.380887248898790   0.904952000106808   0.111003522973502   1.0000000
N2   N   0.380867360253219   0.047311394566222   0.111020166081973   1.0000000
N2   N   0.380678653465990   0.189545091894436   0.111029992897087   1.0000000
N2   N   0.380137059284447   0.331383606882671   0.110944291973712   1.0000000
N2   N   0.371893251643080   0.471610279514182   0.111052673318078   1.0000000
N2   N   0.380207393999929   0.620160372124678   0.111037629841213   1.0000000
N2   N   0.380731914654818   0.762549037302069   0.111069869548965   1.0000000
N2   N   0.523951927282939   0.905504126250974   0.111004403829782   1.0000000
N2   N   0.523905706711124   0.047687218550061   0.110993968329721   1.0000000
N2   N   0.523906669207725   0.189902536644337   0.111045086725400   1.0000000
N2   N   0.523984188310487   0.331698478564069   0.111016978423972   1.0000000
N2   N   0.528451016739543   0.469580593026581   0.110883764772572   1.0000000
N2   N   0.528587761113753   0.630466699862247   0.110891099653921   1.0000000
N2   N   0.524074514639867   0.763818628706576   0.110996084353311   1.0000000
N2   N   0.666996066334895   0.905470809956174   0.110968315194176   1.0000000
N2   N   0.666864726780030   0.047933301142484   0.111025295800863   1.0000000
N2   N   0.666836196568062   0.190445397272222   0.111057956421521   1.0000000
N2   N   0.666915054295057   0.333011401294038   0.111051634246803   1.0000000
N2   N   0.667319424963707   0.475740539288485   0.111048516118777   1.0000000
N2   N   0.667493054982214   0.619497916468104   0.110988023569933   1.0000000
N2   N   0.667438959337169   0.763170307098426   0.110949357950107   1.0000000
N2   N   0.809831477347093   0.905214711603579   0.110980841020189   1.0000000
N2   N   0.809723846377487   0.047911380164929   0.111037969837512   1.0000000
N2   N   0.809665300642377   0.190590471050875   0.111057867502485   1.0000000
N2   N   0.809673590129852   0.333287213482445   0.111046649245532   1.0000000
N2   N   0.809746277105834   0.476059076643544   0.111068774868791   1.0000000
N2   N   0.809815381180220   0.619097712844460   0.111086299841572   1.0000000
N2   N   0.809850181668667   0.762191411545509   0.111041435387098   1.0000000


