data_1
_audit_creation_method   'vasp2cif'
_cell_length_a    17.52789999999977
_cell_length_b    17.52789999999977
_cell_length_c    15.0
_cell_angle_alpha    90.0
_cell_angle_beta    90.0
_cell_angle_gamma    119.99999999999916

_symmetry_space_group_name_H-M    'P 1'
loop_
_atom_site_label
_atom_site_type_symbol
_atom_site_fract_x
_atom_site_fract_y
_atom_site_fract_z
_atom_site_occupancy
B2   B   0.906654605174849   0.953685313685387   0.111022501778959   1.0000000
B2   B   0.904430351609761   0.094869212367204   0.111036932077725   1.0000000
B2   B   0.903620148974409   0.237311724230822   0.111070797239378   1.0000000
B2   B   0.903281596714052   0.380196616395514   0.111019309161565   1.0000000
B2   B   0.903558801777241   0.523007338208552   0.111010379464794   1.0000000
B2   B   0.904653516305195   0.666207096987722   0.111085766101952   1.0000000
B2   B   0.906727026288043   0.810519431549898   0.111063291450132   1.0000000
B2   B   0.049200822798145   0.953445925623235   0.110948393604426   1.0000000
B2   B   0.048601395423761   0.096039597204125   0.110959100647715   1.0000000
B2   B   0.046754797098365   0.237393847075737   0.110971555620487   1.0000000
B2   B   0.046047646342710   0.379878831027611   0.111001781941151   1.0000000
B2   B   0.046276688880786   0.522979685118935   0.110998873797828   1.0000000
B2   B   0.047456323098555   0.666194596101581   0.111000670551000   1.0000000
B2   B   0.048464754746367   0.809715887427430   0.110970741002407   1.0000000
B2   B   0.191509083801262   0.952924433764342   0.110961399699724   1.0000000
B2   B   0.191946742694461   0.096723815515655   0.110989121766995   1.0000000
B2   B   0.191023536642417   0.238972235776213   0.110943339450423   1.0000000
B2   B   0.188547432448387   0.379415868436200   0.110854072848385   1.0000000
B2   B   0.188112873468194   0.522340000208092   0.110906237688370   1.0000000
B2   B   0.190265710483589   0.665699101078476   0.111008966277085   1.0000000
B2   B   0.191106124738525   0.809229176727473   0.110961584591011   1.0000000
B2   B   0.334128058770308   0.952298846304441   0.110998304733374   1.0000000
B2   B   0.334275343643905   0.096465992593910   0.111048211494447   1.0000000
B2   B   0.335091056239403   0.240636476160405   0.111030379922651   1.0000000
B2   B   0.334026643061794   0.382854517587575   0.111239108428992   1.0000000
B2   B   0.327843720154540   0.520651495786480   0.111113678314864   1.0000000
B2   B   0.332996335111761   0.664227745816833   0.110921588249622   1.0000000
B2   B   0.333947273673229   0.808059825062008   0.111036207472666   1.0000000
B2   B   0.476387860533025   0.950273137819065   0.111026656105573   1.0000000
B2   B   0.476542171078587   0.096574383718560   0.110945787360085   1.0000000
B2   B   0.476392194705663   0.243139118199272   0.110995972150740   1.0000000
B2   B   0.472561765828311   0.648860079828277   0.111205684469689   1.0000000
B2   B   0.476282383507174   0.802764180500130   0.111140801859214   1.0000000
B2   B   0.618331652899055   0.950676569002226   0.111095693327914   1.0000000
B2   B   0.618417810989576   0.094638930896205   0.111018201789768   1.0000000
B2   B   0.618596502151512   0.238997375885890   0.110957085105246   1.0000000
B2   B   0.620485809353362   0.386480906287554   0.111000535772498   1.0000000
B2   B   0.642382871476498   0.677684645243506   0.110797898769819   1.0000000
B2   B   0.618050269609312   0.807454489533443   0.111064614116278   1.0000000
B2   B   0.761696711953868   0.951770596036243   0.111054676277337   1.0000000
B2   B   0.761000468548495   0.094409708517336   0.111083139420896   1.0000000
B2   B   0.760755511667331   0.237607373700701   0.111083746557241   1.0000000
B2   B   0.760306805628626   0.380870103445092   0.111000416426326   1.0000000
B2   B   0.757946932385312   0.521619535565613   0.111069132181386   1.0000000
B2   B   0.762890195613770   0.665553887919416   0.110967808173886   1.0000000
B2   B   0.766385975423295   0.812162302865888   0.110962889471827   1.0000000
C2   C   0.477260964937490   0.389728718705084   0.111308269968073   1.0000000
C2   C   0.471001049244575   0.533948037493361   0.111509439363073   1.0000000
C2   C   0.512475080527937   0.481567487747877   0.111567462056576   1.0000000
N2   N   0.954338575876078   0.906304385005372   0.110983430093038   1.0000000
N2   N   0.953428806328229   0.048617176823864   0.110998825794317   1.0000000
N2   N   0.951607612485058   0.189828699983650   0.111016637240463   1.0000000
N2   N   0.951133444708878   0.332313998614631   0.111009295031299   1.0000000
N2   N   0.951746295041104   0.475398022826369   0.110964630700795   1.0000000
N2   N   0.953037951886710   0.618898551619881   0.111014538284237   1.0000000
N2   N   0.953954250591147   0.762630601798267   0.111015875427549   1.0000000
N2   N   0.096525508477843   0.905473839117748   0.110922821406993   1.0000000
N2   N   0.096673613063761   0.048885095854139   0.110923306359681   1.0000000
N2   N   0.095642178701130   0.191007343777750   0.110920799351955   1.0000000
N2   N   0.093657358979901   0.332104909947621   0.110972111234903   1.0000000
N2   N   0.093524291891297   0.475059260884871   0.110989650275667   1.0000000
N2   N   0.095280006331601   0.618474206564602   0.110993586659775   1.0000000
N2   N   0.096179629417877   0.761956401494059   0.110936945177289   1.0000000
N2   N   0.238942484969789   0.904781975408222   0.110944673495654   1.0000000
N2   N   0.238983038304291   0.048432624886956   0.110985566179394   1.0000000
N2   N   0.239380663517202   0.192278843335881   0.111050703156055   1.0000000
N2   N   0.238204182481337   0.333899136311604   0.110817663053388   1.0000000
N2   N   0.234068679841086   0.473817921924213   0.110710534176228   1.0000000
N2   N   0.237652937745840   0.617639643294577   0.110980765048894   1.0000000
N2   N   0.238733699396496   0.761156130865175   0.110994853187644   1.0000000
N2   N   0.381240379770449   0.903467136922430   0.110992636934058   1.0000000
N2   N   0.381206244907629   0.047786834735811   0.110994980778569   1.0000000
N2   N   0.381003758505855   0.191790842579212   0.111072736018278   1.0000000
N2   N   0.382996006558243   0.336562322994485   0.110928122157874   1.0000000
N2   N   0.377860333748993   0.477535402707912   0.111910314810785   1.0000000
N2   N   0.379143986206911   0.614739562248700   0.110710188349685   1.0000000
N2   N   0.381196584410101   0.759148045781936   0.111071237657174   1.0000000
N2   N   0.523124916619330   0.900232218020761   0.111096467346339   1.0000000
N2   N   0.523160356895214   0.046455318626151   0.110957360467793   1.0000000
N2   N   0.522948476502838   0.192333882777623   0.110875784461073   1.0000000
N2   N   0.521109357927700   0.339161674425346   0.111036799848439   1.0000000
N2   N   0.522778085906723   0.750830322096620   0.111221466046415   1.0000000
N2   N   0.665733094526832   0.903154473127513   0.111121767039514   1.0000000
N2   N   0.665618947403551   0.046146652917682   0.111009936635461   1.0000000
N2   N   0.665513454632491   0.189542228638812   0.111041286999702   1.0000000
N2   N   0.665024375848149   0.332504163707998   0.110924278825009   1.0000000
N2   N   0.667202526614094   0.475632159790383   0.111046277772737   1.0000000
N2   N   0.670478269396375   0.623919508521904   0.110639962263965   1.0000000
N2   N   0.670172958805087   0.766645257413358   0.110747426442462   1.0000000
N2   N   0.811643946619828   0.906746191481205   0.111021314576615   1.0000000
N2   N   0.808983703274780   0.047003175172425   0.111024144191148   1.0000000
N2   N   0.808465654279106   0.189475307370502   0.111079629477270   1.0000000
N2   N   0.808401233588063   0.332379871569166   0.111035154487424   1.0000000
N2   N   0.809738973680273   0.475599954592754   0.111009521155500   1.0000000
N2   N   0.811166577356969   0.619368440317470   0.111098870226045   1.0000000
N2   N   0.812479142507979   0.763899351154828   0.111065752995901   1.0000000


