data_1
_audit_creation_method   'vasp2cif'
_cell_length_a    17.52789999999977
_cell_length_b    17.52789999999977
_cell_length_c    15.0
_cell_angle_alpha    90.0
_cell_angle_beta    90.0
_cell_angle_gamma    119.99999999999916

_symmetry_space_group_name_H-M    'P 1'
loop_
_atom_site_label
_atom_site_type_symbol
_atom_site_fract_x
_atom_site_fract_y
_atom_site_fract_z
_atom_site_occupancy
Al2   Al   0.514997899434539   0.485003502482439   0.076668866778442   1.0000000
B2   B   0.905800804014195   0.953066309324602   0.111344746808598   1.0000000
B2   B   0.904690669933191   0.095311351262804   0.109638360101526   1.0000000
B2   B   0.904401783119797   0.237988264747584   0.109543879328072   1.0000000
B2   B   0.904662364393606   0.380823189724761   0.111590070494078   1.0000000
B2   B   0.906280844024389   0.523949506087499   0.114661383700103   1.0000000
B2   B   0.907423458104762   0.667614584105269   0.115860370755121   1.0000000
B2   B   0.908379112142721   0.811863007493334   0.113940617035216   1.0000000
B2   B   0.048208039889871   0.951793981306104   0.109023540414723   1.0000000
B2   B   0.046935711871357   0.094201217181763   0.111344746808598   1.0000000
B2   B   0.046599249430783   0.237160897009482   0.112592086163745   1.0000000
B2   B   0.047050133345056   0.380346484613515   0.114617831105957   1.0000000
B2   B   0.048165023942008   0.523440282800878   0.113824000322457   1.0000000
B2   B   0.048959361168336   0.666414936927153   0.111084814232143   1.0000000
B2   B   0.049107085366095   0.809337305284775   0.109087314480378   1.0000000
B2   B   0.190664715911171   0.950894935829892   0.109087314480378   1.0000000
B2   B   0.188139013702661   0.091622909053263   0.113940617035216   1.0000000
B2   B   0.188129552332653   0.235312369151925   0.114789836855637   1.0000000
B2   B   0.188781988150649   0.379140843008453   0.115520049086660   1.0000000
B2   B   0.190125344338138   0.523056849678491   0.120629334695348   1.0000000
B2   B   0.191238639343267   0.666067611572505   0.115104438981504   1.0000000
B2   B   0.191329297120372   0.808672724075621   0.109279085298364   1.0000000
B2   B   0.333587084269840   0.951042660027712   0.111084814232143   1.0000000
B2   B   0.332387437091764   0.092578563091252   0.115860370755121   1.0000000
B2   B   0.327078744979489   0.230440682556355   0.117502831461136   1.0000000
B2   B   0.328841700572151   0.375197031841497   0.096480009057698   1.0000000
B2   B   0.330571627848677   0.521962334687040   0.109026676259922   1.0000000
B2   B   0.333841645969100   0.666160375227956   0.119394420762890   1.0000000
B2   B   0.333934409624468   0.808763381852694   0.115104438981504   1.0000000
B2   B   0.476561738396152   0.951836997254077   0.113824000322457   1.0000000
B2   B   0.476052515109508   0.093721177171532   0.114661383700103   1.0000000
B2   B   0.475006357567587   0.234671770733046   0.120814996551267   1.0000000
B2   B   0.464189524774419   0.363840414313729   0.100184062906198   1.0000000
B2   B   0.478039686510040   0.669430393348297   0.109026676259933   1.0000000
B2   B   0.476945171518563   0.809876676857889   0.120629334695348   1.0000000
B2   B   0.619655536582492   0.952951887850958   0.114617831105957   1.0000000
B2   B   0.619178831471258   0.095339656802391   0.111590070494078   1.0000000
B2   B   0.618886395861223   0.238101700494162   0.116646916653389   1.0000000
B2   B   0.618342269264748   0.381659751931273   0.118952095556756   1.0000000
B2   B   0.636161606882267   0.535812496422543   0.100184062906198   1.0000000
B2   B   0.624804989354443   0.671160320624870   0.096480009057701   1.0000000
B2   B   0.620861178187564   0.811220033045387   0.115520049086660   1.0000000
B2   B   0.762841124186495   0.953402771765181   0.112592086163745   1.0000000
B2   B   0.762013756448445   0.095600238076236   0.109543879328072   1.0000000
B2   B   0.761749749901044   0.238252271294925   0.110625122967319   1.0000000
B2   B   0.761900320701801   0.381115625334808   0.116646916653389   1.0000000
B2   B   0.765330250462908   0.524995663629461   0.120814996551267   1.0000000
B2   B   0.769561338639649   0.672923276217521   0.117502831461136   1.0000000
B2   B   0.764689652044105   0.811872468863431   0.114789836855637   1.0000000
N2   N   0.953975351174531   0.905989058668412   0.110445747399868   1.0000000
N2   N   0.952267822355351   0.047733579562632   0.109970597272286   1.0000000
N2   N   0.951860151945618   0.190271473240415   0.109782599482771   1.0000000
N2   N   0.952181621550642   0.333095731730435   0.111051437671168   1.0000000
N2   N   0.953323340301938   0.475991358252874   0.112218211212728   1.0000000
N2   N   0.954242922589015   0.619234613638960   0.113349635865515   1.0000000
N2   N   0.954616134553073   0.762806009961684   0.112606801483825   1.0000000
N2   N   0.095869783238018   0.904131618679939   0.107726564286130   1.0000000
N2   N   0.094012343249633   0.046026050743470   0.110445747399868   1.0000000
N2   N   0.093623247240309   0.189134091805902   0.113617140267970   1.0000000
N2   N   0.094217391599943   0.332369042529124   0.115185685198082   1.0000000
N2   N   0.095404710972500   0.475581548933417   0.117020276859786   1.0000000
N2   N   0.096348975372329   0.618562765902920   0.112714569078511   1.0000000
N2   N   0.096483249319747   0.761431170820212   0.108626492650752   1.0000000
N2   N   0.238570231097801   0.903518152598222   0.108626492650752   1.0000000
N2   N   0.237195391956338   0.045385267364925   0.112606801483825   1.0000000
N2   N   0.233303813737954   0.185458023277593   0.117798134277134   1.0000000
N2   N   0.235437398137300   0.330970237393437   0.110589888390705   1.0000000
N2   N   0.237151140980930   0.474758853921460   0.121189296665893   1.0000000
N2   N   0.238823746478244   0.618294047654208   0.119835454435329   1.0000000
N2   N   0.238974005548506   0.761027396369543   0.112493973278537   1.0000000
N2   N   0.381438636015092   0.903652426545684   0.112714569078511   1.0000000
N2   N   0.380766788279078   0.045758479329018   0.113349635865515   1.0000000
N2   N   0.378780975727807   0.186774198860319   0.120651843641174   1.0000000
N2   N   0.370758736549935   0.322962256445070   0.106904219166198   1.0000000
N2   N   0.373935812138119   0.473374953832198   0.078543549049749   1.0000000
N2   N   0.381874152819692   0.618127249098364   0.114306162947076   1.0000000
N2   N   0.381707354263769   0.761177655439713   0.119835454435329   1.0000000
N2   N   0.524419852983545   0.904596690945504   0.117020276859786   1.0000000
N2   N   0.524010043664163   0.046678061616038   0.112218211212728   1.0000000
N2   N   0.523478527534013   0.188319942546452   0.118672739687574   1.0000000
N2   N   0.521767944370019   0.328905530901868   0.118601793655186   1.0000000
N2   N   0.526626448084726   0.626065589779880   0.078543549049748   1.0000000
N2   N   0.525242547995540   0.762850260937040   0.121189296665893   1.0000000
N2   N   0.667632359387904   0.905784010318075   0.115185685198082   1.0000000
N2   N   0.666905670186652   0.047819780367350   0.111051437671168   1.0000000
N2   N   0.666644506276224   0.190487314861005   0.112058256403012   1.0000000
N2   N   0.666449360307094   0.333552041609839   0.119062262060365   1.0000000
N2   N   0.671095871015115   0.478233457547036   0.118601793655186   1.0000000
N2   N   0.677039145471969   0.629242665367960   0.106904219166196   1.0000000
N2   N   0.669031164523494   0.764564003780642   0.110589888390705   1.0000000
N2   N   0.810867310112091   0.906378154677660   0.113617140267970   1.0000000
N2   N   0.809729928677598   0.048141249972355   0.109782599482771   1.0000000
N2   N   0.809394267232450   0.190607134685514   0.108585795821927   1.0000000
N2   N   0.809514087057022   0.333356895640764   0.112058256403013   1.0000000
N2   N   0.811681459371526   0.476522874382926   0.118672739687574   1.0000000
N2   N   0.813227203057683   0.621220426190248   0.120651843641174   1.0000000
N2   N   0.814543378640424   0.766697588180066   0.117798134277134   1.0000000
P2   P   0.450552825850368   0.549449195346606   0.001613073498507   1.0000000


