data_1
_audit_creation_method   'vasp2cif'
_cell_length_a    17.52789999999977
_cell_length_b    17.52789999999977
_cell_length_c    15.0
_cell_angle_alpha    90.0
_cell_angle_beta    90.0
_cell_angle_gamma    119.99999999999916

_symmetry_space_group_name_H-M    'P 1'
loop_
_atom_site_label
_atom_site_type_symbol
_atom_site_fract_x
_atom_site_fract_y
_atom_site_fract_z
_atom_site_occupancy
B2   B   0.904075916145514   0.951542238496892   0.114236795231513   1.0000000
B2   B   0.903631614076691   0.094411864551928   0.115153276675916   1.0000000
B2   B   0.903614019890539   0.237690324242722   0.113638403159086   1.0000000
B2   B   0.904090086283991   0.381037545721718   0.111073362455078   1.0000000
B2   B   0.905200017876647   0.524240005239481   0.108043680251745   1.0000000
B2   B   0.905958113019156   0.667240932433784   0.105119325288717   1.0000000
B2   B   0.905228503023728   0.809477225070771   0.110243238341104   1.0000000
B2   B   0.047763289617897   0.952429768780419   0.114438838524001   1.0000000
B2   B   0.046586237967069   0.094489794579523   0.114555669372803   1.0000000
B2   B   0.046218949827231   0.237360093993839   0.112830554408546   1.0000000
B2   B   0.046608319950263   0.380589360938929   0.111366992112802   1.0000000
B2   B   0.047787266579039   0.523835596682810   0.110866218828076   1.0000000
B2   B   0.048587067472037   0.667038928517947   0.110696972706777   1.0000000
B2   B   0.048590794686559   0.810038333555959   0.112132253066993   1.0000000
B2   B   0.191310244169504   0.953196523518358   0.116435150852655   1.0000000
B2   B   0.190398264918637   0.095612511592246   0.115551775051783   1.0000000
B2   B   0.188764255177280   0.237109920991346   0.112747944716812   1.0000000
B2   B   0.188787469028460   0.380185463137113   0.111070790853998   1.0000000
B2   B   0.190441908507642   0.523327040216128   0.112053136740625   1.0000000
B2   B   0.191315480578178   0.666625259251439   0.113806471160490   1.0000000
B2   B   0.191507383005163   0.810007526981563   0.115229039110629   1.0000000
B2   B   0.334240908352124   0.953346993162947   0.118752815907036   1.0000000
B2   B   0.334186147270146   0.097111089324999   0.118635190462213   1.0000000
B2   B   0.333137903086757   0.239351814141801   0.114973762704613   1.0000000
B2   B   0.329776594145789   0.379138803019851   0.112191496960759   1.0000000
B2   B   0.333191960991545   0.522323264388788   0.112940978893166   1.0000000
B2   B   0.334167883176020   0.665604970736277   0.116298312784616   1.0000000
B2   B   0.334227310667500   0.809424805877497   0.117767337379487   1.0000000
B2   B   0.476629292365127   0.952597449931694   0.119733448240515   1.0000000
B2   B   0.476682165794095   0.097847599518346   0.119674697828169   1.0000000
B2   B   0.476876275036759   0.244198357075627   0.118864077486950   1.0000000
B2   B   0.474623184908852   0.391948008883183   0.120895465895736   1.0000000
B2   B   0.474650029301026   0.511224145892139   0.120531272193995   1.0000000
B2   B   0.476829202206070   0.661244835727044   0.118111019190194   1.0000000
B2   B   0.476638629534875   0.807386302721581   0.119043094853181   1.0000000
B2   B   0.618695608658631   0.951427337574630   0.119164173803186   1.0000000
B2   B   0.618724174677862   0.095833295321403   0.118818586005803   1.0000000
B2   B   0.618793315708472   0.240260434600134   0.116579266974373   1.0000000
B2   B   0.619228416492696   0.384716296000302   0.106147549555353   1.0000000
B2   B   0.624798515810515   0.526840426076737   0.061961653257253   1.0000000
B2   B   0.619279622706420   0.663146129433488   0.106840056099130   1.0000000
B2   B   0.618765123955691   0.807096522728038   0.117386028375495   1.0000000
B2   B   0.761061218953923   0.951166063778605   0.116464801327146   1.0000000
B2   B   0.760990904141989   0.094750812740883   0.116902744468096   1.0000000
B2   B   0.761072165607430   0.238426776316283   0.114758810289328   1.0000000
B2   B   0.761381775959256   0.381809062522917   0.109490115326814   1.0000000
B2   B   0.762893983252185   0.524722965708063   0.098567675456636   1.0000000
B2   B   0.762949143815025   0.666786474602903   0.099431900149496   1.0000000
B2   B   0.761390225252181   0.808112865691094   0.111458698307917   1.0000000
In2   In   0.528518133253779   0.480484201036477   0.927315684037611   1.0000000
N2   N   0.952466526970268   0.904627482877235   0.113281815990366   1.0000000
N2   N   0.951393360474828   0.046822717279164   0.114983198549641   1.0000000
N2   N   0.951077573744328   0.189781477305826   0.113981059266172   1.0000000
N2   N   0.951399422986363   0.333050056078864   0.111899003752799   1.0000000
N2   N   0.952483847936997   0.476336861851952   0.109974378321326   1.0000000
N2   N   0.953408131377428   0.619512664081906   0.107654517860196   1.0000000
N2   N   0.953413374776290   0.762399999756282   0.108927062989076   1.0000000
N2   N   0.096010411793034   0.905325634843267   0.114546167860555   1.0000000
N2   N   0.095064231434273   0.047647732037360   0.115149224659040   1.0000000
N2   N   0.093789795758110   0.189626826723163   0.113369946808044   1.0000000
N2   N   0.093806264452189   0.332658040268837   0.111430122913252   1.0000000
N2   N   0.095098695649008   0.475919284362551   0.111128961015676   1.0000000
N2   N   0.096025051522250   0.619178945041578   0.111660248868929   1.0000000
N2   N   0.096294595579308   0.762391368548325   0.112527256918266   1.0000000
N2   N   0.239004467285783   0.905495421639355   0.117110737164848   1.0000000
N2   N   0.238787230565700   0.048711582931271   0.117180854140583   1.0000000
N2   N   0.237690050518209   0.190870664483048   0.114078822128894   1.0000000
N2   N   0.235587720580322   0.332043948503800   0.111274741535192   1.0000000
N2   N   0.237743161339903   0.475352487828476   0.111311930313547   1.0000000
N2   N   0.238803167726818   0.618604099227300   0.113922113328671   1.0000000
N2   N   0.239002853429817   0.762020675557145   0.115736318342184   1.0000000
N2   N   0.381487439209053   0.905011741082291   0.119114772506110   1.0000000
N2   N   0.381516228502559   0.049145196042493   0.119647248854616   1.0000000
N2   N   0.381593744089928   0.193097601990468   0.118561877331966   1.0000000
N2   N   0.380034154771769   0.334839034958355   0.113548846860528   1.0000000
N2   N   0.380097791689878   0.473720499581209   0.112457131813215   1.0000000
N2   N   0.381579348032411   0.617032392355349   0.116566264966048   1.0000000
N2   N   0.381491514445192   0.760901913401593   0.118138181269355   1.0000000
N2   N   0.523579921534306   0.903493853138086   0.119728076326826   1.0000000
N2   N   0.523600628280087   0.048652904922419   0.119881500715582   1.0000000
N2   N   0.523605456477200   0.194284198739510   0.118894095414943   1.0000000
N2   N   0.523879650074391   0.342428313776060   0.117612156904994   1.0000000
N2   N   0.523851260677975   0.610025906704003   0.117467836271316   1.0000000
N2   N   0.523567719664692   0.757877896452281   0.118677792471489   1.0000000
N2   N   0.665821283818875   0.902970836877092   0.118310995782453   1.0000000
N2   N   0.665807541168966   0.047169729488541   0.118647681764614   1.0000000
N2   N   0.665841910957083   0.191415186747383   0.117241049056451   1.0000000
N2   N   0.665946373004629   0.335378588452829   0.111619931342096   1.0000000
N2   N   0.668058033981453   0.477696689474234   0.088789543111810   1.0000000
N2   N   0.668150639884028   0.619062711641922   0.089463220533162   1.0000000
N2   N   0.665960310356720   0.759144672483438   0.112923627168235   1.0000000
N2   N   0.808753077973500   0.903573520617622   0.114244729381748   1.0000000
N2   N   0.808406536663011   0.046698850446387   0.116433761968384   1.0000000
N2   N   0.808397866104146   0.190208664644179   0.115214481473648   1.0000000
N2   N   0.808761187502342   0.333698605013177   0.111708689618704   1.0000000
N2   N   0.809961872700697   0.476894598529740   0.106322656288436   1.0000000
N2   N   0.811131173691615   0.619856966681712   0.098524239443454   1.0000000
N2   N   0.809986248251268   0.761610457797303   0.108100525509164   1.0000000


