data_1
_audit_creation_method   'vasp2cif'
_cell_length_a    17.52789999999977
_cell_length_b    17.52789999999977
_cell_length_c    15.0
_cell_angle_alpha    90.0
_cell_angle_beta    90.0
_cell_angle_gamma    119.99999999999916

_symmetry_space_group_name_H-M    'P 1'
loop_
_atom_site_label
_atom_site_type_symbol
_atom_site_fract_x
_atom_site_fract_y
_atom_site_fract_z
_atom_site_occupancy
B2   B   0.905482635708792   0.952480781954780   0.106527731051150   1.0000000
B2   B   0.904183111814203   0.094225677114724   0.108718528744730   1.0000000
B2   B   0.903974834327117   0.236941413552439   0.108762199001041   1.0000000
B2   B   0.904268110375784   0.380100741580613   0.107635077349392   1.0000000
B2   B   0.905858651905804   0.523667103041877   0.105872131030665   1.0000000
B2   B   0.907371991008231   0.667473789990226   0.103532320236978   1.0000000
B2   B   0.907340104726935   0.810908872646278   0.102578546240023   1.0000000
B2   B   0.048758022894836   0.952989267528146   0.105845909917340   1.0000000
B2   B   0.048109169659857   0.095533176075929   0.106659711084816   1.0000000
B2   B   0.046957494286770   0.237430178056120   0.107162412463300   1.0000000
B2   B   0.046506394166429   0.380163222614762   0.106577670065446   1.0000000
B2   B   0.046951147502196   0.523500195533850   0.106758578616719   1.0000000
B2   B   0.048302650201388   0.666981935421759   0.106510525145393   1.0000000
B2   B   0.049041279277139   0.810213524210264   0.105538812462326   1.0000000
B2   B   0.191203327357098   0.952647406953323   0.107301380531374   1.0000000
B2   B   0.190682665035009   0.095217519376606   0.106258551191347   1.0000000
B2   B   0.191091621215652   0.239041465141530   0.106798427890139   1.0000000
B2   B   0.189054407289482   0.380530197201128   0.104519231711460   1.0000000
B2   B   0.188077584557240   0.523617815101629   0.103611731114434   1.0000000
B2   B   0.189512314019386   0.666741589335969   0.107171688121336   1.0000000
B2   B   0.190917742959521   0.809767275014408   0.108292218036423   1.0000000
B2   B   0.333604122633571   0.952073796627509   0.109192309052293   1.0000000
B2   B   0.333551706629849   0.094886803978057   0.109555869467045   1.0000000
B2   B   0.332120144546298   0.236907772007894   0.112639318265630   1.0000000
B2   B   0.334562121305197   0.384396314127217   0.115656904418382   1.0000000
B2   B   0.328155158483690   0.524113457736999   0.104644850291775   1.0000000
B2   B   0.330735513732026   0.666947634565628   0.106273998335121   1.0000000
B2   B   0.333068861069605   0.809317959603447   0.110268603350347   1.0000000
B2   B   0.475967306207956   0.950374660977946   0.110907967603435   1.0000000
B2   B   0.476198802456950   0.093943213356249   0.110580993843156   1.0000000
B2   B   0.475980267702466   0.236538235331442   0.119190716831389   1.0000000
B2   B   0.469536038985446   0.371537577340399   0.143606864524553   1.0000000
B2   B   0.468373381634499   0.555432810077734   0.143352851531695   1.0000000
B2   B   0.469027151145012   0.658270221826764   0.126929931321672   1.0000000
B2   B   0.475094899344389   0.805795856524267   0.116539857399040   1.0000000
B2   B   0.618097271845801   0.950021189767948   0.112871188494618   1.0000000
B2   B   0.618594207727541   0.093626906669361   0.110436722861906   1.0000000
B2   B   0.618896632266866   0.237010315475759   0.114441646947739   1.0000000
B2   B   0.619920639363087   0.380610713189386   0.126612650046913   1.0000000
B2   B   0.633154387649110   0.531711916071316   0.129897390746360   1.0000000
B2   B   0.625611577377868   0.668062986354157   0.100137834729673   1.0000000
B2   B   0.616835179009666   0.806085717895814   0.114890120076724   1.0000000
B2   B   0.760943760767406   0.950598374056264   0.109741278377305   1.0000000
B2   B   0.761092976018384   0.093617182585118   0.110104999774895   1.0000000
B2   B   0.761389801839741   0.236838574164028   0.109901481575044   1.0000000
B2   B   0.762143156788482   0.380257898899505   0.111327394675211   1.0000000
B2   B   0.765491205223433   0.524214922549800   0.109805070039451   1.0000000
B2   B   0.767869788755272   0.669301125935754   0.100514692926206   1.0000000
B2   B   0.763488957123060   0.809675023541247   0.104173734018440   1.0000000
N2   N   0.953579385802580   0.905436410886199   0.105088707048284   1.0000000
N2   N   0.952659002378358   0.047475906142839   0.107604949175807   1.0000000
N2   N   0.951754172104182   0.189474960549334   0.108610606548090   1.0000000
N2   N   0.951485307550512   0.332259246336870   0.107883312350043   1.0000000
N2   N   0.952084519276294   0.475421565503998   0.106633450198539   1.0000000
N2   N   0.953316211516183   0.618966111059838   0.104975753430736   1.0000000
N2   N   0.953871280954275   0.762493867372715   0.103271262287021   1.0000000
N2   N   0.096149946505219   0.905292290729915   0.106250460795827   1.0000000
N2   N   0.095818436832701   0.048045061491105   0.106055421709353   1.0000000
N2   N   0.095867283714258   0.191036833184455   0.106526116211358   1.0000000
N2   N   0.094379476214308   0.332624770957895   0.105961348374832   1.0000000
N2   N   0.093690301366088   0.475413057433764   0.106078423475742   1.0000000
N2   N   0.094732043034815   0.618747124193361   0.107336119758717   1.0000000
N2   N   0.095866068297735   0.762149618075229   0.107007665018256   1.0000000
N2   N   0.238585603907112   0.904937712138533   0.108541811899320   1.0000000
N2   N   0.238635666377148   0.047983399546698   0.107193071830892   1.0000000
N2   N   0.238067817166221   0.190714226824999   0.106631037521860   1.0000000
N2   N   0.239672160631721   0.335443771904814   0.107498837732393   1.0000000
N2   N   0.234966489294167   0.475393852502501   0.101396671937190   1.0000000
N2   N   0.236141504914846   0.618669967642855   0.104611292156765   1.0000000
N2   N   0.237996958382700   0.761838107495472   0.108780151665007   1.0000000
N2   N   0.380986165871196   0.904201011589830   0.110197627379098   1.0000000
N2   N   0.381198172008489   0.047391758940868   0.109380600126849   1.0000000
N2   N   0.381104126044374   0.190641325518118   0.113532613114339   1.0000000
N2   N   0.379125688424869   0.332699705319001   0.122561451441941   1.0000000
N2   N   0.381600944831977   0.482372787031774   0.115398984431190   1.0000000
N2   N   0.376805567210046   0.618554255083854   0.106263136440221   1.0000000
N2   N   0.380228426168793   0.761167351309884   0.111784666268251   1.0000000
N2   N   0.523035971971714   0.901520310220540   0.113544918585257   1.0000000
N2   N   0.523542191881394   0.045960720333728   0.109890069993575   1.0000000
N2   N   0.523746651195705   0.189649716029506   0.113998834429746   1.0000000
N2   N   0.523481416254667   0.332311981387565   0.132734807682948   1.0000000
N2   N   0.521567368177512   0.754965771024055   0.123886037249232   1.0000000
N2   N   0.665111681150262   0.901375392046854   0.112866846174044   1.0000000
N2   N   0.665814874200421   0.045484511434623   0.110810268521316   1.0000000
N2   N   0.666123719891842   0.189293290588564   0.110949169202284   1.0000000
N2   N   0.666414857411355   0.333015010455465   0.117591569642327   1.0000000
N2   N   0.670623770361469   0.477084094504413   0.123109048920648   1.0000000
N2   N   0.672171800262058   0.621180192852535   0.104106471974849   1.0000000
N2   N   0.666379558375317   0.759909157948336   0.105587831223041   1.0000000
N2   N   0.809654273640920   0.903953170035693   0.107171165475778   1.0000000
N2   N   0.808622358116331   0.045829972244240   0.109641798288436   1.0000000
N2   N   0.808699713332367   0.189021398445924   0.109491321622866   1.0000000
N2   N   0.808909141569549   0.332302622572810   0.108996812273408   1.0000000
N2   N   0.810688272176211   0.475624007578247   0.107722910424419   1.0000000
N2   N   0.812119420397907   0.619391931069985   0.103642526201295   1.0000000
N2   N   0.811975795935123   0.763153003300363   0.100009894067245   1.0000000
P2   P   0.524071526113174   0.490820956661500   0.183305677865485   1.0000000


