data_1
_audit_creation_method   'vasp2cif'
_cell_length_a    14.93631414619966
_cell_length_b    14.936314146199727
_cell_length_c    13.341276283792837
_cell_angle_alpha    90.0
_cell_angle_beta    90.0
_cell_angle_gamma    119.99999999999984

_symmetry_space_group_name_H-M    'P 1'
loop_
_atom_site_label
_atom_site_type_symbol
_atom_site_fract_x
_atom_site_fract_y
_atom_site_fract_z
_atom_site_occupancy
Al2   Al   0.444444444444443   0.388888888888886   0.375000000000000   1.0000000
N2   N   0.111091039389773   0.055537548014724   0.124845853962600   1.0000000
N2   N   0.611135309129418   0.555587968604007   0.125390602318364   1.0000000
N2   N   0.444446508624958   0.055537548014724   0.124845853962600   1.0000000
N2   N   0.944449234787051   0.555558434450668   0.125124370249206   1.0000000
N2   N   0.777777777777779   0.055555555555557   0.124886002842284   1.0000000
N2   N   0.111111111111114   0.722222222222221   0.624847718197752   1.0000000
N2   N   0.444446508624958   0.722242293943655   0.625154146037407   1.0000000
N2   N   0.277745364729315   0.222198024203875   0.624609397681593   1.0000000
N2   N   0.777795785318626   0.722242293943655   0.625154146037407   1.0000000
N2   N   0.611120130009155   0.222213203324209   0.625226368315243   1.0000000
N2   N   0.944436850529402   0.222219392411953   0.625100142634899   1.0000000
N2   N   0.277774898882640   0.722224133669690   0.125124370249206   1.0000000
N2   N   0.111093073315054   0.222213203324209   0.124773631684778   1.0000000
N2   N   0.444452659474568   0.222198024203875   0.125390602318364   1.0000000
N2   N   0.611120130009155   0.722240260018261   0.124773631684778   1.0000000
N2   N   0.944449234787051   0.722224133669690   0.125124370249206   1.0000000
N2   N   0.777782541882551   0.222219392411953   0.124899857365193   1.0000000
N2   N   0.111109199663610   0.888884098546278   0.624875629750801   1.0000000
N2   N   0.444449495328511   0.888891414330916   0.624951950828728   1.0000000
N2   N   0.277745364729315   0.388880673858761   0.624609397681593   1.0000000
N2   N   0.611135309129418   0.388880673858761   0.624609397681593   1.0000000
N2   N   0.777782541882551   0.888896482803927   0.625100142634899   1.0000000
N2   N   0.944441919002412   0.388883838004817   0.624951950828728   1.0000000
N2   N   0.111091039389766   0.388886824708370   0.124845853962600   1.0000000
N2   N   0.277774898882640   0.888884098546278   0.125124370249206   1.0000000
N2   N   0.611113940921354   0.888896482803927   0.124899857365193   1.0000000
N2   N   0.444444444444443   0.388888888888886   0.129975052709324   1.0000000
N2   N   0.944441919002412   0.888891414330916   0.125048049171244   1.0000000
N2   N   0.777795785318626   0.388886824708370   0.124845853962600   1.0000000
N2   N   0.277771226477904   0.555562106855446   0.624972534262823   1.0000000
N2   N   0.111091039389766   0.055537548014724   0.625154146037407   1.0000000
N2   N   0.611135309129418   0.555587968604007   0.624609397681593   1.0000000
N2   N   0.444446508624958   0.055537548014724   0.625154146037407   1.0000000
N2   N   0.944449234787051   0.555558434450668   0.624875629750801   1.0000000
N2   N   0.111109199663610   0.555558434450668   0.125124370249206   1.0000000
N2   N   0.777777777777779   0.055555555555557   0.625113997157673   1.0000000
N2   N   0.277771226477904   0.055542452955794   0.125027465737176   1.0000000
N2   N   0.444452659474568   0.555587968604007   0.125390602318364   1.0000000
N2   N   0.777790880377534   0.555562106855446   0.125027465737176   1.0000000
N2   N   0.611113940921354   0.055550791450763   0.124899857365193   1.0000000
N2   N   0.444452659474568   0.555587968604007   0.624609397681593   1.0000000
N2   N   0.944436850529402   0.055550791450763   0.124899857365193   1.0000000
N2   N   0.277774898882640   0.722224133669690   0.624875629750801   1.0000000
N2   N   0.111093073315054   0.222213203324209   0.625226368315243   1.0000000
N2   N   0.444452659474568   0.222198024203875   0.624609397681593   1.0000000
N2   N   0.611120130009155   0.722240260018261   0.625226368315243   1.0000000
N2   N   0.944449234787051   0.722224133669690   0.624875629750801   1.0000000
N2   N   0.777782541882551   0.222219392411953   0.625100142634899   1.0000000
N2   N   0.111111111111114   0.722222222222221   0.125152281802269   1.0000000
N2   N   0.444446508624958   0.722242293943655   0.124845853962600   1.0000000
N2   N   0.277745364729315   0.222198024203875   0.125390602318364   1.0000000
N2   N   0.777795785318626   0.722242293943655   0.124845853962600   1.0000000
N2   N   0.611120130009155   0.222213203324209   0.124773631684778   1.0000000
N2   N   0.944436850529402   0.222219392411953   0.124899857365193   1.0000000
N2   N   0.111091039389766   0.388886824708370   0.625154146037407   1.0000000
N2   N   0.277774898882640   0.888884098546278   0.624875629750801   1.0000000
N2   N   0.611113940921354   0.888896482803927   0.625100142634899   1.0000000
N2   N   0.444444444444443   0.388888888888886   0.620024947290620   1.0000000
N2   N   0.944441919002412   0.888891414330916   0.624951950828728   1.0000000
N2   N   0.111109199663610   0.888884098546278   0.125124370249206   1.0000000
N2   N   0.777795785318626   0.388886824708370   0.625154146037407   1.0000000
N2   N   0.444449495328511   0.888891414330916   0.125048049171244   1.0000000
N2   N   0.277745364729315   0.388880673858761   0.125390602318364   1.0000000
N2   N   0.277771226477904   0.555562106855446   0.125027465737176   1.0000000
N2   N   0.611135309129418   0.388880673858761   0.125390602318364   1.0000000
N2   N   0.777782541882551   0.888896482803927   0.124899857365193   1.0000000
N2   N   0.944441919002412   0.388883838004817   0.125048049171244   1.0000000
N2   N   0.111109199663610   0.555558434450668   0.624875629750801   1.0000000
N2   N   0.277771226477904   0.055542452955794   0.624972534262823   1.0000000
N2   N   0.777790880377534   0.555562106855446   0.624972534262823   1.0000000
N2   N   0.611113940921354   0.055550791450763   0.625100142634899   1.0000000
N2   N   0.944436850529402   0.055550791450763   0.625100142634899   1.0000000
N2   N   0.054564716663121   0.110435410052163   0.375000000000000   1.0000000
N2   N   0.556109865795301   0.612219731590723   0.375000000000000   1.0000000
N2   N   0.387892569216731   0.105495079927081   0.375000000000000   1.0000000
N2   N   0.890808817163033   0.612071075248142   0.375000000000000   1.0000000
N2   N   0.722400972931842   0.110932360401529   0.375000000000000   1.0000000
N2   N   0.055554563881565   0.777778769451799   0.875000000000000   1.0000000
N2   N   0.388889630632883   0.777779412484090   0.875000000000000   1.0000000
N2   N   0.222226997176675   0.277780165255013   0.875000000000000   1.0000000
N2   N   0.722222154890654   0.777778073515004   0.875000000000000   1.0000000
N2   N   0.555553168078337   0.277780165255013   0.875000000000000   1.0000000
N2   N   0.888889355726923   0.277778711453874   0.875000000000000   1.0000000
N2   N   0.221845364697937   0.777589349015644   0.375000000000000   1.0000000
N2   N   0.054564716663121   0.277462639944286   0.375000000000000   1.0000000
N2   N   0.379642406063028   0.259284812126063   0.375000000000000   1.0000000
N2   N   0.555870693388985   0.778768616670208   0.375000000000000   1.0000000
N2   N   0.890457501780404   0.779049348704449   0.375000000000000   1.0000000
N2   N   0.722897923281187   0.277462639944286   0.375000000000000   1.0000000
N2   N   0.055553920849253   0.944443551482107   0.875000000000000   1.0000000
N2   N   0.388889630632883   0.944443551482107   0.875000000000000   1.0000000
N2   N   0.222224880403023   0.444443141259975   0.875000000000000   1.0000000
N2   N   0.555540478981602   0.444436906157462   0.875000000000000   1.0000000
N2   N   0.722221684858682   0.944443369717442   0.875000000000000   1.0000000
N2   N   0.888889781851221   0.444443702700446   0.875000000000000   1.0000000
N2   N   0.054283984628880   0.444741486409206   0.375000000000000   1.0000000
N2   N   0.221262258085173   0.942524516170296   0.375000000000000   1.0000000
N2   N   0.555811205887925   0.944572269610641   0.375000000000000   1.0000000
N2   N   0.379642406063028   0.453690927270301   0.375000000000000   1.0000000
N2   N   0.888761063722687   0.944572269610641   0.375000000000000   1.0000000
N2   N   0.727838253406305   0.445440764116598   0.375000000000000   1.0000000
N2   N   0.222222460992426   0.611110872340874   0.875000000000000   1.0000000
N2   N   0.055555259818396   0.111111178442710   0.875000000000000   1.0000000
N2   N   0.555553168078337   0.611106336156639   0.875000000000000   1.0000000
N2   N   0.388890192073354   0.111115072476405   0.875000000000000   1.0000000
N2   N   0.888888411348398   0.611110872340874   0.875000000000000   1.0000000
N2   N   0.055743984317706   0.611487968635406   0.375000000000000   1.0000000
N2   N   0.722221684858682   0.111111648474618   0.875000000000000   1.0000000
N2   N   0.217602510710364   0.105495079927081   0.375000000000000   1.0000000
N2   N   0.387892569216731   0.615730822622936   0.375000000000000   1.0000000
N2   N   0.727838253406305   0.615730822622936   0.375000000000000   1.0000000
N2   N   0.555870693388985   0.110435410052163   0.375000000000000   1.0000000
N2   N   0.388890192073354   0.611108452930306   0.875000000000000   1.0000000
N2   N   0.888531387469709   0.110932360401529   0.375000000000000   1.0000000
N2   N   0.222224205570192   0.777778769451799   0.875000000000000   1.0000000
N2   N   0.055555259818396   0.277777414708979   0.875000000000000   1.0000000
N2   N   0.388896427175867   0.277792854351727   0.875000000000000   1.0000000
N2   N   0.555555918624378   0.777778073515004   0.875000000000000   1.0000000
N2   N   0.888889781851221   0.777779412484090   0.875000000000000   1.0000000
N2   N   0.722222154890654   0.277777414708979   0.875000000000000   1.0000000
N2   N   0.055743984317706   0.777589349015644   0.375000000000000   1.0000000
N2   N   0.388591846924123   0.779049348704449   0.375000000000000   1.0000000
N2   N   0.221113601742620   0.277223467537971   0.375000000000000   1.0000000
N2   N   0.722897923281187   0.778768616670208   0.375000000000000   1.0000000
N2   N   0.556109865795301   0.277223467537971   0.375000000000000   1.0000000
N2   N   0.888761063722687   0.277522127445354   0.375000000000000   1.0000000
N2   N   0.055553920849253   0.444443702700446   0.875000000000000   1.0000000
N2   N   0.222222460992426   0.944444921984930   0.875000000000000   1.0000000
N2   N   0.555554621879511   0.944443977606405   0.875000000000000   1.0000000
N2   N   0.388896427175867   0.444436906157462   0.875000000000000   1.0000000
N2   N   0.888889355726923   0.944443977606405   0.875000000000000   1.0000000
N2   N   0.054283984628880   0.942875831552925   0.375000000000000   1.0000000
N2   N   0.722218260856917   0.444443141259975   0.875000000000000   1.0000000
N2   N   0.388591846924123   0.942875831552996   0.375000000000000   1.0000000
N2   N   0.217602510710364   0.445440764116598   0.375000000000000   1.0000000
N2   N   0.221262258085173   0.612071075248142   0.375000000000000   1.0000000
N2   N   0.574048521207273   0.453690927270301   0.375000000000000   1.0000000
N2   N   0.722400972931842   0.944801945863620   0.375000000000000   1.0000000
N2   N   0.890457501780404   0.444741486409206   0.375000000000000   1.0000000
N2   N   0.055554563881565   0.611109127763201   0.875000000000000   1.0000000
N2   N   0.222224880403023   0.111115072476405   0.875000000000000   1.0000000
N2   N   0.722218260856917   0.611108452930306   0.875000000000000   1.0000000
N2   N   0.555555918624378   0.111111178442710   0.875000000000000   1.0000000
N2   N   0.888889963615887   0.111111648474618   0.875000000000000   1.0000000
B2   B   0.108142133314347   0.052796793598198   0.375000000000000   1.0000000
B2   B   0.618132687202180   0.561354435125346   0.375000000000000   1.0000000
B2   B   0.444654660283845   0.052796793598198   0.375000000000000   1.0000000
B2   B   0.945258731173884   0.555826935699440   0.375000000000000   1.0000000
B2   B   0.777777777777779   0.055555555555557   0.375000000000000   1.0000000
B2   B   0.111111111111114   0.722222222222221   0.875000000000000   1.0000000
B2   B   0.444446899861166   0.722229280965624   0.875000000000000   1.0000000
B2   B   0.277755427527894   0.222219865299147   0.875000000000000   1.0000000
B2   B   0.777782381104536   0.722229280965624   0.875000000000000   1.0000000
B2   B   0.611109629291667   0.222223704041704   0.875000000000000   1.0000000
B2   B   0.944433372242882   0.222226366803932   0.875000000000000   1.0000000
B2   B   0.277506397633889   0.722765128807773   0.375000000000000   1.0000000
B2   B   0.110244953709354   0.221789143521338   0.375000000000000   1.0000000
B2   B   0.443221747923195   0.215200646131156   0.375000000000000   1.0000000
B2   B   0.611544189812034   0.723088379624046   0.375000000000000   1.0000000
B2   B   0.945258731173884   0.722765128807773   0.375000000000000   1.0000000
B2   B   0.777957627617625   0.221848062846099   0.375000000000000   1.0000000
B2   B   0.111124171651520   0.888893369743172   0.875000000000000   1.0000000
B2   B   0.444459710834945   0.888896522084130   0.875000000000000   1.0000000
B2   B   0.277755427527894   0.388868895562069   0.875000000000000   1.0000000
B2   B   0.611113468034153   0.388868895562069   0.875000000000000   1.0000000
B2   B   0.777792994561121   0.888899961090447   0.875000000000000   1.0000000
B2   B   0.944436811249199   0.388873622498384   0.875000000000000   1.0000000
B2   B   0.108142133314347   0.388678673049484   0.375000000000000   1.0000000
B2   B   0.277506397633889   0.888074602159445   0.375000000000000   1.0000000
B2   B   0.611485270487280   0.889442898104940   0.375000000000000   1.0000000
B2   B   0.944276366722855   0.889056966610474   0.375000000000000   1.0000000
B2   B   0.780536539735201   0.388678673049484   0.375000000000000   1.0000000
B2   B   0.277768051359502   0.555565281973819   0.875000000000000   1.0000000
B2   B   0.111104052367641   0.055550952228800   0.875000000000000   1.0000000
B2   B   0.611113468034153   0.555577905805513   0.875000000000000   1.0000000
B2   B   0.444446899861180   0.055550952228800   0.875000000000000   1.0000000
B2   B   0.944439963590156   0.555564135241577   0.875000000000000   1.0000000
B2   B   0.110568204525599   0.555826935699440   0.375000000000000   1.0000000
B2   B   0.777777777777779   0.055555555555557   0.875000000000000   1.0000000
B2   B   0.276336264413014   0.052672528826091   0.375000000000000   1.0000000
B2   B   0.443221747923195   0.561354435125346   0.375000000000000   1.0000000
B2   B   0.780660804507309   0.556997068920322   0.375000000000000   1.0000000
B2   B   0.611485270487280   0.055375705715668   0.375000000000000   1.0000000
B2   B   0.444464437771260   0.555577905805513   0.875000000000000   1.0000000
B2   B   0.943890435228389   0.055375705715668   0.375000000000000   1.0000000
B2   B   0.277769198091745   0.722209161681851   0.875000000000000   1.0000000
B2   B   0.111114074750087   0.222223704041704   0.875000000000000   1.0000000
B2   B   0.444464437771260   0.222219865299147   0.875000000000000   1.0000000
B2   B   0.611109629291667   0.722219258583214   0.875000000000000   1.0000000
B2   B   0.944439963590156   0.722209161681851   0.875000000000000   1.0000000
B2   B   0.777792994561121   0.222226366803932   0.875000000000000   1.0000000
B2   B   0.111111111111114   0.722222222222221   0.375000000000000   1.0000000
B2   B   0.444654660283845   0.725191200019067   0.375000000000000   1.0000000
B2   B   0.271978898207954   0.215200646131156   0.375000000000000   1.0000000
B2   B   0.780536539735201   0.725191200019067   0.375000000000000   1.0000000
B2   B   0.611544189812034   0.221789143521338   0.375000000000000   1.0000000
B2   B   0.943890435228389   0.221848062846099   0.375000000000000   1.0000000
B2   B   0.111104052367641   0.388886433472148   0.875000000000000   1.0000000
B2   B   0.277769198091745   0.888893369743172   0.875000000000000   1.0000000
B2   B   0.611106966529432   0.888899961090447   0.875000000000000   1.0000000
B2   B   0.444444444444443   0.388888888888886   0.875000000000000   1.0000000
B2   B   0.944436811249199   0.888896522084130   0.875000000000000   1.0000000
B2   B   0.110568204525599   0.888074602159445   0.375000000000000   1.0000000
B2   B   0.777782381104536   0.388886433472148   0.875000000000000   1.0000000
B2   B   0.444780599887676   0.889056966610474   0.375000000000000   1.0000000
B2   B   0.271978898207954   0.390111585410134   0.375000000000000   1.0000000
B2   B   0.276336264413014   0.556997068920322   0.375000000000000   1.0000000
B2   B   0.618132687202180   0.390111585410134   0.375000000000000   1.0000000
B2   B   0.777957627617625   0.889442898104940   0.375000000000000   1.0000000
B2   B   0.944276366722855   0.388552733445652   0.375000000000000   1.0000000
B2   B   0.111124171651520   0.555564135241577   0.875000000000000   1.0000000
B2   B   0.277768051359502   0.055536102719026   0.875000000000000   1.0000000
B2   B   0.777797230614338   0.555565281973819   0.875000000000000   1.0000000
B2   B   0.611106966529432   0.055540338772257   0.875000000000000   1.0000000
B2   B   0.944433372242882   0.055540338772257   0.875000000000000   1.0000000
B2   B   0.055543190526946   0.111077167124624   0.124720705982452   1.0000000
B2   B   0.555594245979225   0.611188491958499   0.125090831133878   1.0000000
B2   B   0.388879332702791   0.111021140440348   0.124903405582276   1.0000000
B2   B   0.888912499723837   0.611122916528547   0.124974805598601   1.0000000
B2   B   0.722238440944229   0.111094892389171   0.124767539750349   1.0000000
B2   B   0.055570851075134   0.777762482258237   0.624988602015044   1.0000000
B2   B   0.388898271770761   0.777777376163444   0.625104564947970   1.0000000
B2   B   0.222144841374901   0.277739087354083   0.624909168866123   1.0000000
B2   B   0.722256166208683   0.777790142806397   0.625279294017584   1.0000000
B2   B   0.555594245979225   0.277739087354083   0.624909168866123   1.0000000
B2   B   0.888887831809643   0.277775663619300   0.625162172286686   1.0000000
B2   B   0.222191631183053   0.777762482258237   0.125011397984977   1.0000000
B2   B   0.055543190526946   0.277799356735650   0.124720705982452   1.0000000
B2   B   0.388758812558974   0.277517625117983   0.126681981923250   1.0000000
B2   B   0.555533976597636   0.777790142806397   0.124720705982452   1.0000000
B2   B   0.888879104392662   0.777777376163444   0.124895435052008   1.0000000
B2   B   0.722256166208683   0.277799356735650   0.124720705982452   1.0000000
B2   B   0.055555957169927   0.944454228940667   0.625104564947970   1.0000000
B2   B   0.388898271770761   0.944454228940667   0.625104564947970   1.0000000
B2   B   0.222141807737543   0.444454000630538   0.625096594417724   1.0000000
B2   B   0.555815708215388   0.444574520774355   0.623318018076736   1.0000000
B2   B   0.722238440944229   0.944476881888301   0.625232460249637   1.0000000
B2   B   0.888879104392662   0.444435061562568   0.625104564947970   1.0000000
B2   B   0.055555957169927   0.444435061562568   0.124895435052008   1.0000000
B2   B   0.222210416804725   0.944420833609492   0.124974805598601   1.0000000
B2   B   0.555557669714035   0.944445501523686   0.124837827713300   1.0000000
B2   B   0.388758812558974   0.444574520774355   0.126681981923250   1.0000000
B2   B   0.888887831809643   0.944445501523686   0.124837827713300   1.0000000
B2   B   0.722312192893030   0.444454000630538   0.124903405582276   1.0000000
B2   B   0.222210416804725   0.611122916528547   0.625025194401364   1.0000000
B2   B   0.055543190526946   0.111077167124624   0.625279294017584   1.0000000
B2   B   0.555594245979225   0.611188491958499   0.624909168866123   1.0000000
B2   B   0.388879332702791   0.111021140440348   0.625096594417724   1.0000000
B2   B   0.888912499723837   0.611122916528547   0.625025194401364   1.0000000
B2   B   0.055570851075134   0.611141702150297   0.125011397984977   1.0000000
B2   B   0.722238440944229   0.111094892389171   0.625232460249637   1.0000000
B2   B   0.222141807737543   0.111021140440348   0.124903405582276   1.0000000
B2   B   0.388879332702791   0.611191525595814   0.124903405582276   1.0000000
B2   B   0.722312192893030   0.611191525595814   0.124903405582276   1.0000000
B2   B   0.555533976597636   0.111077167124624   0.124720705982452   1.0000000
B2   B   0.388879332702791   0.611191525595814   0.625096594417724   1.0000000
B2   B   0.888856451445027   0.111094892389171   0.124767539750349   1.0000000
B2   B   0.222191631183053   0.777762482258237   0.624988602015044   1.0000000
B2   B   0.055543190526946   0.277799356735650   0.625279294017584   1.0000000
B2   B   0.388758812558974   0.277517625117983   0.623318018076736   1.0000000
B2   B   0.555533976597636   0.777790142806397   0.625279294017584   1.0000000
B2   B   0.888879104392662   0.777777376163444   0.625104564947970   1.0000000
B2   B   0.722256166208683   0.277799356735650   0.625279294017584   1.0000000
B2   B   0.055570851075134   0.777762482258237   0.125011397984977   1.0000000
B2   B   0.388898271770761   0.777777376163444   0.124895435052008   1.0000000
B2   B   0.222144841374901   0.277739087354083   0.125090831133878   1.0000000
B2   B   0.722256166208683   0.777790142806397   0.124720705982452   1.0000000
B2   B   0.555594245979225   0.277739087354083   0.125090831133878   1.0000000
B2   B   0.888887831809643   0.277775663619300   0.124837827713300   1.0000000
B2   B   0.055555957169927   0.444435061562568   0.625104564947970   1.0000000
B2   B   0.222210416804725   0.944420833609492   0.625025194401364   1.0000000
B2   B   0.555557669714035   0.944445501523686   0.625162172286686   1.0000000
B2   B   0.388758812558974   0.444574520774355   0.623318018076736   1.0000000
B2   B   0.888887831809643   0.944445501523686   0.625162172286686   1.0000000
B2   B   0.055555957169927   0.944454228940667   0.124895435052008   1.0000000
B2   B   0.722312192893030   0.444454000630538   0.625096594417724   1.0000000
B2   B   0.388898271770761   0.944454228940667   0.124895435052008   1.0000000
B2   B   0.222141807737529   0.444454000630538   0.124903405582276   1.0000000
B2   B   0.222210416804725   0.611122916528547   0.124974805598601   1.0000000
B2   B   0.555815708215388   0.444574520774355   0.126681981923250   1.0000000
B2   B   0.722238440944229   0.944476881888301   0.124767539750349   1.0000000
B2   B   0.888879104392662   0.444435061562568   0.124895435052008   1.0000000
B2   B   0.055570851075142   0.611141702150297   0.624988602015044   1.0000000
B2   B   0.222141807737543   0.111021140440348   0.625096594417724   1.0000000
B2   B   0.722312192893030   0.611191525595814   0.625096594417724   1.0000000
B2   B   0.555533976597636   0.111077167124624   0.625279294017584   1.0000000
B2   B   0.888856451445027   0.111094892389171   0.625232460249637   1.0000000


