data_1
_audit_creation_method   'vasp2cif'
_cell_length_a    17.52789999999977
_cell_length_b    17.52789999999977
_cell_length_c    15.0
_cell_angle_alpha    90.0
_cell_angle_beta    90.0
_cell_angle_gamma    119.99999999999916

_symmetry_space_group_name_H-M    'P 1'
loop_
_atom_site_label
_atom_site_type_symbol
_atom_site_fract_x
_atom_site_fract_y
_atom_site_fract_z
_atom_site_occupancy
B2   B   0.904692127315414   0.952017838567913   0.112146922056482   1.0000000
B2   B   0.905050115159498   0.094951040783500   0.111880943777700   1.0000000
B2   B   0.905184753297577   0.237791643371689   0.110781834803797   1.0000000
B2   B   0.905226159530841   0.380713589093501   0.109935375434573   1.0000000
B2   B   0.905162292094535   0.523673862491694   0.109852512540188   1.0000000
B2   B   0.904449465076035   0.666464078834506   0.110790271249747   1.0000000
B2   B   0.904078980230356   0.808888953563622   0.110826788067099   1.0000000
B2   B   0.047550441959330   0.952451707841670   0.110425611678162   1.0000000
B2   B   0.047983356741111   0.095309330202547   0.112146917596484   1.0000000
B2   B   0.048022685735780   0.238029312944640   0.112873219578079   1.0000000
B2   B   0.047770294698697   0.380949544981130   0.113554002968201   1.0000000
B2   B   0.047405850309458   0.523987681867866   0.112411209807043   1.0000000
B2   B   0.047229231699227   0.666880532710562   0.110565019522287   1.0000000
B2   B   0.047264015249183   0.809632811841008   0.109690797434627   1.0000000
B2   B   0.190369467323987   0.952738363420831   0.109690796683626   1.0000000
B2   B   0.191112971940358   0.095923239660646   0.110826780701101   1.0000000
B2   B   0.191151172079431   0.238488143280186   0.112954531439275   1.0000000
B2   B   0.190463199750217   0.381043923936150   0.113670309586555   1.0000000
B2   B   0.189507576880162   0.524420160713296   0.115762566231213   1.0000000
B2   B   0.189720385342621   0.667282813763631   0.113627788484526   1.0000000
B2   B   0.190022467939040   0.809979572880007   0.110555457510851   1.0000000
B2   B   0.333121437654444   0.952772945357785   0.110565019335286   1.0000000
B2   B   0.333538201993529   0.095552910284950   0.110790278361747   1.0000000
B2   B   0.334916631535510   0.239397329722470   0.113213116899942   1.0000000
B2   B   0.333587311710161   0.380347159700154   0.102989727462333   1.0000000
B2   B   0.330442714106213   0.525667141674847   0.105839792130149   1.0000000
B2   B   0.332010601118808   0.667991289860226   0.112324319259617   1.0000000
B2   B   0.332718528658358   0.810281276324357   0.113627778934526   1.0000000
B2   B   0.476013669483148   0.952595496253509   0.112411201910043   1.0000000
B2   B   0.476328522599258   0.094839741657511   0.109852513119188   1.0000000
B2   B   0.476749554816487   0.236901280495911   0.113680310730616   1.0000000
B2   B   0.479217824963793   0.379613774315749   0.124682294245303   1.0000000
B2   B   0.474335172615170   0.669559510725761   0.105839788554144   1.0000000
B2   B   0.475581056111701   0.810494585383822   0.115762566021212   1.0000000
B2   B   0.619052058366909   0.952231156948298   0.113554012108203   1.0000000
B2   B   0.619288152089512   0.094775188806181   0.109935375095573   1.0000000
B2   B   0.619642439644464   0.237229847186734   0.110295254275340   1.0000000
B2   B   0.620468165068589   0.379533955584463   0.117434013712208   1.0000000
B2   B   0.620387958138289   0.520782978582166   0.124682301884298   1.0000000
B2   B   0.619654304079870   0.666413457638811   0.102989723175337   1.0000000
B2   B   0.618957478335877   0.809538237045780   0.113670315616555   1.0000000
B2   B   0.761972085555413   0.951978291215277   0.112873228144084   1.0000000
B2   B   0.762209916993261   0.094816551427355   0.110781837689801   1.0000000
B2   B   0.762432065628547   0.237569406710468   0.108810578186495   1.0000000
B2   B   0.762771994285257   0.380359355986545   0.110295256324339   1.0000000
B2   B   0.763101496305107   0.523252532537505   0.113680312397613   1.0000000
B2   B   0.760604649743565   0.665084859178509   0.113213124079941   1.0000000
B2   B   0.761513411194797   0.808849821868575   0.112954537066276   1.0000000
N2   N   0.952054012159426   0.904309164520956   0.111083491504465   1.0000000
N2   N   0.952624627405739   0.047376541425281   0.112020379041120   1.0000000
N2   N   0.952851743204938   0.190270600833049   0.111743002626068   1.0000000
N2   N   0.952793280096646   0.333109598537748   0.111219584940135   1.0000000
N2   N   0.952535228034666   0.476002489798123   0.110155606334716   1.0000000
N2   N   0.952084848663441   0.618914059927454   0.110037987906804   1.0000000
N2   N   0.951902586581793   0.761627047683522   0.110238561560727   1.0000000
N2   N   0.095090937628117   0.904911401620906   0.109362213477232   1.0000000
N2   N   0.095692755903056   0.047948102520574   0.111083485658460   1.0000000
N2   N   0.095972397172590   0.190786210671287   0.113354741164765   1.0000000
N2   N   0.095668939551102   0.333452551927699   0.114080619452350   1.0000000
N2   N   0.094897542258845   0.476292297147677   0.114873150450326   1.0000000
N2   N   0.094762955964837   0.619237914892155   0.112172206603712   1.0000000
N2   N   0.094840704938949   0.762088795696599   0.109958609754233   1.0000000
N2   N   0.237913280544419   0.905161501465036   0.109958611571233   1.0000000
N2   N   0.238375249269515   0.048099932753198   0.110238552805725   1.0000000
N2   N   0.239503440122748   0.191695316643923   0.111786666564040   1.0000000
N2   N   0.239121877838473   0.334179394889628   0.110968174321118   1.0000000
N2   N   0.237224716712706   0.476702035681876   0.115441679721064   1.0000000
N2   N   0.237280101273254   0.619615521212703   0.115029897862987   1.0000000
N2   N   0.237599168975127   0.762402347520843   0.112465684778424   1.0000000
N2   N   0.380763588246820   0.905238829076149   0.112172191915713   1.0000000
N2   N   0.381088277905562   0.047917593656533   0.110037997435800   1.0000000
N2   N   0.381673559043876   0.191003776263268   0.112834689463196   1.0000000
N2   N   0.384164219138780   0.336165505335417   0.113867997384398   1.0000000
N2   N   0.376486285099732   0.476671696222344   0.089668490614873   1.0000000
N2   N   0.379653824934436   0.620348462901612   0.105881361300638   1.0000000
N2   N   0.380385862488246   0.762721690690791   0.115029891471989   1.0000000
N2   N   0.523709360159345   0.905104316544151   0.114873155376327   1.0000000
N2   N   0.523999300980900   0.047465743464360   0.110155596504713   1.0000000
N2   N   0.524366574210800   0.189841396904873   0.110375840159286   1.0000000
N2   N   0.525131714707925   0.331760548001560   0.119684560741457   1.0000000
N2   N   0.523329995194688   0.623514838326243   0.089668477807880   1.0000000
N2   N   0.523299613693125   0.762778006144235   0.115441684318069   1.0000000
N2   N   0.666548889380309   0.904332197161885   0.114080633335353   1.0000000
N2   N   0.666892067356306   0.047208194277422   0.111219591934135   1.0000000
N2   N   0.667186220290956   0.189864383837324   0.108826278417664   1.0000000
N2   N   0.667611747978176   0.332389830263817   0.112002812412678   1.0000000
N2   N   0.668242225048452   0.474870049111054   0.119684568184456   1.0000000
N2   N   0.663836261561591   0.615837134524229   0.113868008649400   1.0000000
N2   N   0.665821817365385   0.760878966045500   0.110968174195117   1.0000000
N2   N   0.809215111469738   0.904028499024411   0.113354749476765   1.0000000
N2   N   0.809730607510969   0.047149235979114   0.111743005776067   1.0000000
N2   N   0.809983533558126   0.190017805457919   0.109542359883431   1.0000000
N2   N   0.810137091620682   0.332815222062020   0.108826277076664   1.0000000
N2   N   0.810161140715098   0.475635200826247   0.110375843173288   1.0000000
N2   N   0.808998633373780   0.618328541148095   0.112834684245198   1.0000000
N2   N   0.808306647114050   0.760498202775230   0.111786676370041   1.0000000
O2   O   0.529632725576395   0.470368339269573   0.137272396066965   1.0000000
S2   S   0.468902163121929   0.531098604405025   0.034890864335994   1.0000000


