data_1
_audit_creation_method   'vasp2cif'
_cell_length_a    17.52789999999977
_cell_length_b    17.52789999999977
_cell_length_c    15.0
_cell_angle_alpha    90.0
_cell_angle_beta    90.0
_cell_angle_gamma    119.99999999999916

_symmetry_space_group_name_H-M    'P 1'
loop_
_atom_site_label
_atom_site_type_symbol
_atom_site_fract_x
_atom_site_fract_y
_atom_site_fract_z
_atom_site_occupancy
B2   B   0.905114638828442   0.952645372946914   0.111015258415727   1.0000000
B2   B   0.904721817578582   0.095280203617411   0.111018545905058   1.0000000
B2   B   0.904577586876426   0.238003140283714   0.111058422708279   1.0000000
B2   B   0.904721817578582   0.380870307652181   0.111018545905058   1.0000000
B2   B   0.905114638828442   0.523899671129533   0.111015258415727   1.0000000
B2   B   0.905216635269193   0.666888736841829   0.111054475379932   1.0000000
B2   B   0.905216635269193   0.809758303675365   0.111054475379932   1.0000000
B2   B   0.047719584296712   0.952282436899291   0.111016003242308   1.0000000
B2   B   0.047356648249090   0.094887382367550   0.111015258415727   1.0000000
B2   B   0.047097601907000   0.237759318763941   0.111024284190619   1.0000000
B2   B   0.047097601907000   0.380768688390052   0.111024284190619   1.0000000
B2   B   0.047356648249090   0.523899671129533   0.111015258415727   1.0000000
B2   B   0.047719584296712   0.666869264201409   0.111016003242308   1.0000000
B2   B   0.047814657758170   0.809623387281082   0.110992599057050   1.0000000
B2   B   0.190378633914912   0.952187363437835   0.110992599057050   1.0000000
B2   B   0.190243717520637   0.094785385926803   0.111054475379932   1.0000000
B2   B   0.189486622243805   0.237057009765351   0.111059677490203   1.0000000
B2   B   0.189382695225148   0.380406550236079   0.111038199293573   1.0000000
B2   B   0.189486622243805   0.523860017726446   0.111059677490203   1.0000000
B2   B   0.190243717520637   0.666888736841829   0.111054475379932   1.0000000
B2   B   0.190378633914912   0.809623387281082   0.110992599057050   1.0000000
B2   B   0.333132756995587   0.952282436899291   0.111016003242308   1.0000000
B2   B   0.333113284355170   0.094785385926803   0.111054475379932   1.0000000
B2   B   0.332921539438309   0.237271462926632   0.111093539809809   1.0000000
B2   B   0.331397278278403   0.378461186171393   0.111019835878039   1.0000000
B2   B   0.331397278278403   0.524366497354008   0.111019835878039   1.0000000
B2   B   0.332921539438309   0.667080481758679   0.111093539809809   1.0000000
B2   B   0.333113284355170   0.809758303675365   0.111054475379932   1.0000000
B2   B   0.476102350067464   0.952645372946914   0.111015258415727   1.0000000
B2   B   0.476102350067464   0.094887382367550   0.111015258415727   1.0000000
B2   B   0.476142003470548   0.237057009765351   0.111059677490203   1.0000000
B2   B   0.475635523842988   0.378461186171393   0.111019835878039   1.0000000
B2   B   0.475635523842988   0.668604742918590   0.111019835878039   1.0000000
B2   B   0.476142003470548   0.810515398952197   0.111059677490203   1.0000000
B2   B   0.619233332805950   0.952904419289002   0.111024284190619   1.0000000
B2   B   0.619131713543823   0.095280203617411   0.111018545905058   1.0000000
B2   B   0.619233332805950   0.237759318763941   0.111024284190619   1.0000000
B2   B   0.619595470959929   0.380406550236079   0.111038199293573   1.0000000
B2   B   0.621540835024611   0.524366497354008   0.111019835878039   1.0000000
B2   B   0.621540835024611   0.668604742918590   0.111019835878039   1.0000000
B2   B   0.619595470959929   0.810619325970852   0.111038199293573   1.0000000
B2   B   0.762242702432062   0.952904419289002   0.111024284190619   1.0000000
B2   B   0.761998880912290   0.095424434319572   0.111058422708279   1.0000000
B2   B   0.761998880912290   0.238003140283714   0.111058422708279   1.0000000
B2   B   0.762242702432062   0.380768688390052   0.111024284190619   1.0000000
B2   B   0.762945011430655   0.523860017726446   0.111059677490203   1.0000000
B2   B   0.762730558269376   0.667080481758679   0.111093539809809   1.0000000
B2   B   0.762945011430655   0.810515398952197   0.111059677490203   1.0000000
N2   N   0.952548949870924   0.904877398628125   0.111012266311244   1.0000000
N2   N   0.952362281928279   0.047639119989728   0.110987646910172   1.0000000
N2   N   0.952157326641195   0.190364419751568   0.110978023290712   1.0000000
N2   N   0.952157326641195   0.333219889007624   0.110978023290712   1.0000000
N2   N   0.952362281928279   0.476150144056548   0.110987646910172   1.0000000
N2   N   0.952548949870924   0.619100244917794   0.111012266311244   1.0000000
N2   N   0.952603688474328   0.762016191074667   0.110986892075735   1.0000000
N2   N   0.095265265066610   0.904736136851383   0.110992898635932   1.0000000
N2   N   0.095124003289870   0.047452452047080   0.111012266311244   1.0000000
N2   N   0.094628394127235   0.189976138685320   0.111012735424000   1.0000000
N2   N   0.094515125912588   0.332971909793293   0.111004432442177   1.0000000
N2   N   0.094628394127235   0.476080949115916   0.111012735424000   1.0000000
N2   N   0.095124003289870   0.619100244917794   0.111012266311244   1.0000000
N2   N   0.095265265066610   0.761959533446229   0.110992898635932   1.0000000
N2   N   0.238041868471779   0.904736136851383   0.110992898635932   1.0000000
N2   N   0.237985210843342   0.047397713443681   0.110986892075735   1.0000000
N2   N   0.237734090751577   0.190001374016454   0.111065612550788   1.0000000
N2   N   0.236396275288062   0.332025383903117   0.111035718783748   1.0000000
N2   N   0.236396275288062   0.475799585058939   0.111035718783748   1.0000000
N2   N   0.237734090751577   0.619161410410125   0.111065612550788   1.0000000
N2   N   0.237985210843342   0.762016191074667   0.110986892075735   1.0000000
N2   N   0.380901157000207   0.904877398628125   0.111012266311244   1.0000000
N2   N   0.380901157000207   0.047452452047080   0.111012266311244   1.0000000
N2   N   0.380839991507879   0.190001374016454   0.111065612550788   1.0000000
N2   N   0.380527401611947   0.332482094980895   0.111046475921814   1.0000000
N2   N   0.371180487124148   0.471304590399072   0.110907129519475   1.0000000
N2   N   0.380527401611947   0.619474000306050   0.111046475921814   1.0000000
N2   N   0.380839991507879   0.762267311166430   0.111065612550788   1.0000000
N2   N   0.523920452801080   0.905373007790764   0.111012735424000   1.0000000
N2   N   0.523851257860452   0.047639119989728   0.110987646910172   1.0000000
N2   N   0.523920452801080   0.189976138685320   0.111012735424000   1.0000000
N2   N   0.524201816858059   0.332025383903117   0.111035718783748   1.0000000
N2   N   0.528696811517923   0.471304590399072   0.110907129519475   1.0000000
N2   N   0.528696811517923   0.628820914793855   0.110907129519475   1.0000000
N2   N   0.524201816858059   0.763605126629943   0.111035718783748   1.0000000
N2   N   0.667029492123702   0.905486276005414   0.111004432442177   1.0000000
N2   N   0.666781512909368   0.047844075276811   0.110978023290712   1.0000000
N2   N   0.666781512909368   0.190364419751568   0.110978023290712   1.0000000
N2   N   0.667029492123702   0.332971909793293   0.111004432442177   1.0000000
N2   N   0.667976018013882   0.475799585058939   0.111035718783748   1.0000000
N2   N   0.667519306936105   0.619474000306050   0.111046475921814   1.0000000
N2   N   0.667976018013882   0.763605126629943   0.111035718783748   1.0000000
N2   N   0.810025263232676   0.905373007790764   0.111012735424000   1.0000000
N2   N   0.809636982166433   0.047844075276811   0.110978023290712   1.0000000
N2   N   0.809525273905997   0.190476128012001   0.111092831671159   1.0000000
N2   N   0.809636982166433   0.333219889007624   0.110978023290712   1.0000000
N2   N   0.810025263232676   0.476080949115916   0.111012735424000   1.0000000
N2   N   0.810000027901545   0.619161410410125   0.111065612550788   1.0000000
N2   N   0.810000027901545   0.762267311166430   0.111065612550788   1.0000000
O2   O   0.476191212381998   0.523810808815000   0.110771485474576   1.0000000


