data_1
_audit_creation_method   'vasp2cif'
_cell_length_a    17.52789999999977
_cell_length_b    17.52789999999977
_cell_length_c    15.0
_cell_angle_alpha    90.0
_cell_angle_beta    90.0
_cell_angle_gamma    119.99999999999916

_symmetry_space_group_name_H-M    'P 1'
loop_
_atom_site_label
_atom_site_type_symbol
_atom_site_fract_x
_atom_site_fract_y
_atom_site_fract_z
_atom_site_occupancy
B2   B   0.905361714834309   0.955744338911362   0.121110786782519   1.0000000
B2   B   0.905644883525122   0.098682246381472   0.120987872617147   1.0000000
B2   B   0.905773407541530   0.241549767289601   0.118387902421669   1.0000000
B2   B   0.905816073827034   0.384478405993772   0.114737901031987   1.0000000
B2   B   0.905521122160918   0.527396626340700   0.112375004061708   1.0000000
B2   B   0.905023881879914   0.670048603313401   0.113922146391754   1.0000000
B2   B   0.904797864393490   0.812570082323280   0.118717659696294   1.0000000
B2   B   0.048390641311966   0.956342554667253   0.121128983868964   1.0000000
B2   B   0.048717415738453   0.099166357283689   0.120814969166237   1.0000000
B2   B   0.048680033328557   0.241852056690431   0.118766706674560   1.0000000
B2   B   0.048433493337697   0.384674188482674   0.116231203342859   1.0000000
B2   B   0.048035395954750   0.527725542626828   0.115047291714979   1.0000000
B2   B   0.047959580474636   0.670643279856576   0.116143524578757   1.0000000
B2   B   0.048047456771875   0.813439280305662   0.119227793564383   1.0000000
B2   B   0.191348773751574   0.956790636361100   0.118939536126354   1.0000000
B2   B   0.192093103698241   0.100015435826659   0.118147600529571   1.0000000
B2   B   0.191937414127792   0.242322205782481   0.116289566904419   1.0000000
B2   B   0.191295639425149   0.384969851307595   0.114057983451363   1.0000000
B2   B   0.190335912244801   0.528100136224361   0.113662249203399   1.0000000
B2   B   0.190547154440529   0.670980363855251   0.115280241615723   1.0000000
B2   B   0.190913466792129   0.813842820269606   0.117630250947856   1.0000000
B2   B   0.334107052252341   0.956797930319120   0.115714559246376   1.0000000
B2   B   0.334681223413863   0.099867679525196   0.113033257612921   1.0000000
B2   B   0.336071411304205   0.243655169452977   0.111100131754877   1.0000000
B2   B   0.335413845364662   0.384514529197051   0.108907087143095   1.0000000
B2   B   0.332905667038477   0.529699057230390   0.109193775991096   1.0000000
B2   B   0.332977063994867   0.671460226578063   0.113523151496296   1.0000000
B2   B   0.333646474074239   0.813995412117733   0.115180221673710   1.0000000
B2   B   0.476893032529142   0.956372336679042   0.115100147081674   1.0000000
B2   B   0.477290568991674   0.099199507254862   0.111656830907512   1.0000000
B2   B   0.477938977992918   0.242057107838726   0.102741864815119   1.0000000
B2   B   0.479980346917395   0.386169846348099   0.091846260459753   1.0000000
B2   B   0.474593334203856   0.670510137518094   0.108047853968123   1.0000000
B2   B   0.476434476512493   0.813661391455040   0.113764523985110   1.0000000
B2   B   0.619766071105182   0.955798907631395   0.116761018300182   1.0000000
B2   B   0.620024142628201   0.098629521638479   0.114875816417533   1.0000000
B2   B   0.620451793354184   0.241233369949822   0.107480050815052   1.0000000
B2   B   0.621364584350241   0.383466555925763   0.095315857738127   1.0000000
B2   B   0.619837285909991   0.525269034396643   0.088464847151090   1.0000000
B2   B   0.620136029102059   0.668755719759448   0.107331047555035   1.0000000
B2   B   0.619415386083620   0.812720652233905   0.113877685723051   1.0000000
B2   B   0.762508123430934   0.955546869756721   0.119193804226837   1.0000000
B2   B   0.762805133658956   0.098519901637365   0.118715675069812   1.0000000
B2   B   0.763050340670049   0.241360891493904   0.114465657176484   1.0000000
B2   B   0.763393440047081   0.384139625840077   0.107827943953014   1.0000000
B2   B   0.762899967334830   0.526772299953028   0.103750628338986   1.0000000
B2   B   0.761317618494573   0.668554424576824   0.111774670628303   1.0000000
B2   B   0.762233814013152   0.812374060365243   0.116491402706516   1.0000000
N2   N   0.952858811560628   0.908098395670473   0.121076450735957   1.0000000
N2   N   0.953293133468192   0.051139387096064   0.121836847430173   1.0000000
N2   N   0.953397269331959   0.193987461209022   0.120065414197451   1.0000000
N2   N   0.953316427459171   0.336826291711044   0.116877279805342   1.0000000
N2   N   0.953024773106950   0.479770003059348   0.114307324710071   1.0000000
N2   N   0.952816857501948   0.622670079100014   0.114113842019659   1.0000000
N2   N   0.952688192527109   0.765342317578782   0.117886752513946   1.0000000
N2   N   0.095988330813870   0.908813979030085   0.120700038988145   1.0000000
N2   N   0.096548212695821   0.051847179633322   0.120780238180912   1.0000000
N2   N   0.096549922856406   0.194497171651130   0.119119566717620   1.0000000
N2   N   0.096127579535787   0.337111090474228   0.116686713910328   1.0000000
N2   N   0.095448097306465   0.479995974961898   0.115000144464584   1.0000000
N2   N   0.095474043319336   0.623028930263282   0.115518922535401   1.0000000
N2   N   0.095668063918190   0.765935002666059   0.118171037568926   1.0000000
N2   N   0.238834070556282   0.909126338550247   0.117922082705189   1.0000000
N2   N   0.239396450326795   0.052165139198762   0.117275403825937   1.0000000
N2   N   0.240359264491535   0.195554654095790   0.115912053836213   1.0000000
N2   N   0.239264064228016   0.337538649748047   0.113566723930457   1.0000000
N2   N   0.237520209684608   0.480251883495501   0.112056293825101   1.0000000
N2   N   0.237982056396680   0.623367940882378   0.113979160863173   1.0000000
N2   N   0.238427855796451   0.766234899597417   0.116055520237386   1.0000000
N2   N   0.381622100765701   0.909108239592059   0.115332531538874   1.0000000
N2   N   0.382031476069854   0.051968528761823   0.113338738073965   1.0000000
N2   N   0.382751880679299   0.195104310436202   0.108255411119953   1.0000000
N2   N   0.384738693102050   0.339448876186396   0.107421594134728   1.0000000
N2   N   0.372220417326728   0.476925663704450   0.101160805590229   1.0000000
N2   N   0.380324146119287   0.623976112413024   0.111659396709834   1.0000000
N2   N   0.381197851291841   0.766440292704009   0.113924056459266   1.0000000
N2   N   0.524481022009888   0.908687685492414   0.115399510370226   1.0000000
N2   N   0.524775438380300   0.051457784014350   0.114178838165430   1.0000000
N2   N   0.525249910355474   0.194215814283188   0.107065530465011   1.0000000
N2   N   0.526358666323125   0.336938776093935   0.093341891185628   1.0000000
N2   N   0.527497238018699   0.631019640416510   0.098556588721521   1.0000000
N2   N   0.524153877048294   0.766171720586268   0.111760495156467   1.0000000
N2   N   0.667229117031893   0.907970758606584   0.117159446143791   1.0000000
N2   N   0.667547597607861   0.050960301327476   0.117383737551851   1.0000000
N2   N   0.667873977983824   0.193700838920523   0.112704285442325   1.0000000
N2   N   0.668481606748373   0.336160673237842   0.103136504159435   1.0000000
N2   N   0.668263271800847   0.478446905452700   0.093278273293677   1.0000000
N2   N   0.665637035998426   0.619913193933281   0.106952534180294   1.0000000
N2   N   0.666948094693008   0.764873739127003   0.112927077354300   1.0000000
N2   N   0.809962952643040   0.907767789353977   0.119548285863802   1.0000000
N2   N   0.810328581708649   0.050846789213445   0.120393785829242   1.0000000
N2   N   0.810552331405630   0.193761219969884   0.117885958983292   1.0000000
N2   N   0.810759100700005   0.336570467031006   0.112737152955470   1.0000000
N2   N   0.810532766166182   0.479364780331804   0.108098734635558   1.0000000
N2   N   0.809838224284466   0.621939962110384   0.109321394238417   1.0000000
N2   N   0.809221335613282   0.764207661175872   0.116623360938977   1.0000000
Se2   Se   0.526081173170256   0.481081193736887   0.986638878004213   1.0000000


