data_1
_audit_creation_method   'vasp2cif'
_cell_length_a    17.52789999999977
_cell_length_b    17.52789999999977
_cell_length_c    15.0
_cell_angle_alpha    90.0
_cell_angle_beta    90.0
_cell_angle_gamma    119.99999999999916

_symmetry_space_group_name_H-M    'P 1'
loop_
_atom_site_label
_atom_site_type_symbol
_atom_site_fract_x
_atom_site_fract_y
_atom_site_fract_z
_atom_site_occupancy
As2   As   0.523133058548375   0.489568184828725   0.111304773122448   1.0000000
B2   B   0.903791209888777   0.951492952035231   0.110927518454001   1.0000000
B2   B   0.903549389397113   0.093916375433458   0.110994569535932   1.0000000
B2   B   0.903766438619878   0.236668086216940   0.110950404001878   1.0000000
B2   B   0.904573139026138   0.379789769511533   0.110877587614418   1.0000000
B2   B   0.907160197630797   0.523575189593558   0.111002176693676   1.0000000
B2   B   0.907517179098018   0.667518038336926   0.111091844278949   1.0000000
B2   B   0.906811618367372   0.811057096985205   0.111010129515955   1.0000000
B2   B   0.047809761919340   0.952621249574265   0.110905972512321   1.0000000
B2   B   0.046964574943716   0.095068191437176   0.110879514523764   1.0000000
B2   B   0.046395756703476   0.237290783947311   0.110883277242127   1.0000000
B2   B   0.046420351373114   0.379945805173129   0.110887453233559   1.0000000
B2   B   0.047487482675184   0.523336334250678   0.110936905508315   1.0000000
B2   B   0.048528091535188   0.666914306147477   0.111045206113485   1.0000000
B2   B   0.048704298066915   0.810110000510944   0.111007506908157   1.0000000
B2   B   0.190734769474902   0.952530810799388   0.110899540820375   1.0000000
B2   B   0.189179388433416   0.094393790198195   0.110924856021362   1.0000000
B2   B   0.190239270459580   0.239208767964001   0.110983834556684   1.0000000
B2   B   0.188727061085859   0.380748284437251   0.110971591986884   1.0000000
B2   B   0.188251789978633   0.523398077818797   0.111016504896898   1.0000000
B2   B   0.189714830262097   0.666587750723348   0.111043438541827   1.0000000
B2   B   0.190858562063855   0.809713698214400   0.110958779690003   1.0000000
B2   B   0.333442587438034   0.952087684743660   0.110957859888501   1.0000000
B2   B   0.333124433677552   0.094874702829066   0.111032141376207   1.0000000
B2   B   0.329513847079305   0.235332915122216   0.111212629655684   1.0000000
B2   B   0.334865895723050   0.386166389262266   0.111336655025012   1.0000000
B2   B   0.328794336077566   0.524451533301038   0.111194497795560   1.0000000
B2   B   0.330977027310949   0.666532119274159   0.111129123931552   1.0000000
B2   B   0.333155238166887   0.809239465734252   0.111043866035163   1.0000000
B2   B   0.475932559390090   0.950569165260767   0.110956435791262   1.0000000
B2   B   0.476085043322159   0.093840434293940   0.111009162681478   1.0000000
B2   B   0.476066488589517   0.236377194476787   0.111194016165963   1.0000000
B2   B   0.467124278552139   0.369433842618328   0.111489276809673   1.0000000
B2   B   0.487239325142449   0.574367180992522   0.111483179236697   1.0000000
B2   B   0.472424725551717   0.660508122456303   0.111296032621708   1.0000000
B2   B   0.475363563902648   0.806372423768533   0.111033181243987   1.0000000
B2   B   0.618092766962422   0.950113053063689   0.110972646705529   1.0000000
B2   B   0.618588306947721   0.093558734953695   0.110959120746784   1.0000000
B2   B   0.619137544035467   0.236837018222624   0.110965691536616   1.0000000
B2   B   0.620402219489696   0.380605053178886   0.111129751409881   1.0000000
B2   B   0.639623685811961   0.532703540668625   0.111102451572425   1.0000000
B2   B   0.616886697273890   0.662031842186857   0.111033200830133   1.0000000
B2   B   0.616786874168034   0.806274592355577   0.111016658781794   1.0000000
B2   B   0.760344408428618   0.950409593917389   0.111009198946104   1.0000000
B2   B   0.760909696138011   0.093458770150283   0.111043740258313   1.0000000
B2   B   0.761480493531071   0.236540497170108   0.110910361813608   1.0000000
B2   B   0.762714977264304   0.379821278903710   0.110924543064663   1.0000000
B2   B   0.768210843317838   0.524198870963596   0.111013549352120   1.0000000
B2   B   0.768439328388694   0.670788026373935   0.110998592931194   1.0000000
B2   B   0.760130414948284   0.807511876030663   0.110997191612537   1.0000000
N2   N   0.953186866167655   0.905620400367582   0.110918061680306   1.0000000
N2   N   0.951547945578274   0.046876085179023   0.110907328894383   1.0000000
N2   N   0.951148866343556   0.189104916755588   0.110932255106015   1.0000000
N2   N   0.951353168472736   0.331807426643378   0.110876089380322   1.0000000
N2   N   0.952978796750090   0.475091088090875   0.110902251902691   1.0000000
N2   N   0.954097939996277   0.619039892015372   0.111069755144327   1.0000000
N2   N   0.954151393996631   0.762865175281184   0.111059313061504   1.0000000
N2   N   0.095719045497629   0.905192755119073   0.110911038232563   1.0000000
N2   N   0.094416855696066   0.047261185656308   0.110857036584852   1.0000000
N2   N   0.094483666841272   0.190377075349626   0.110865361240366   1.0000000
N2   N   0.093380659436215   0.332134350102130   0.110852108104194   1.0000000
N2   N   0.093453532970631   0.475066790683079   0.110897633736303   1.0000000
N2   N   0.094861790117796   0.618691776063314   0.110982723422361   1.0000000
N2   N   0.095900919804976   0.762218345202851   0.110986840455997   1.0000000
N2   N   0.238269335504996   0.904874915835902   0.110895130983988   1.0000000
N2   N   0.237728633767159   0.047413509921357   0.110911902564768   1.0000000
N2   N   0.235169204724354   0.188658995554698   0.110985161048727   1.0000000
N2   N   0.237775785586455   0.334894331425454   0.111056238651436   1.0000000
N2   N   0.233928484955387   0.475178785367755   0.111018221154005   1.0000000
N2   N   0.235646255077544   0.618585033124895   0.111068849707980   1.0000000
N2   N   0.237808360440439   0.761945000714727   0.111003036980815   1.0000000
N2   N   0.380780093852393   0.904402621532881   0.110962828076317   1.0000000
N2   N   0.380841463073689   0.047091243175198   0.110984151651592   1.0000000
N2   N   0.380077472675796   0.189516966424119   0.111143467729510   1.0000000
N2   N   0.374089684650602   0.328492482208955   0.111456414928423   1.0000000
N2   N   0.380264384096438   0.482979072326727   0.111356804809475   1.0000000
N2   N   0.375780083960508   0.618809684599799   0.111153607979127   1.0000000
N2   N   0.379974382603304   0.761734364491369   0.111077037577123   1.0000000
N2   N   0.523057825147882   0.902518858604535   0.110939217402957   1.0000000
N2   N   0.523490015418736   0.045996405089668   0.110939839580826   1.0000000
N2   N   0.523798712189522   0.188800938081451   0.111025415266928   1.0000000
N2   N   0.523896640780938   0.330959196295915   0.111294816522240   1.0000000
N2   N   0.522099505711419   0.757875222569560   0.111075392089829   1.0000000
N2   N   0.665407720117503   0.902561957647070   0.110965387170109   1.0000000
N2   N   0.665876398901897   0.045791990827566   0.110977560818054   1.0000000
N2   N   0.666395483452695   0.188876528404412   0.110900085887424   1.0000000
N2   N   0.667358424427163   0.331977457495375   0.110966288375948   1.0000000
N2   N   0.675079747303965   0.475807906414979   0.111036121364013   1.0000000
N2   N   0.676159068005140   0.625135441274592   0.110987624436891   1.0000000
N2   N   0.663926236273702   0.758546491119403   0.111025119180082   1.0000000
N2   N   0.808330162372150   0.903325576639119   0.110948382037872   1.0000000
N2   N   0.808419015387971   0.045988146051415   0.111041527021657   1.0000000
N2   N   0.808687842888208   0.188774392780349   0.110971222227595   1.0000000
N2   N   0.809526026287215   0.331721495841735   0.110847330903240   1.0000000
N2   N   0.813174316165097   0.475198238840805   0.110961705912891   1.0000000
N2   N   0.813731031995026   0.620077140768115   0.111021330019134   1.0000000
N2   N   0.812868295471249   0.764718455813907   0.110980993077658   1.0000000


