data_1
_audit_creation_method   'vasp2cif'
_cell_length_a    14.93631414619966
_cell_length_b    14.936314146199727
_cell_length_c    13.341276283792837
_cell_angle_alpha    90.0
_cell_angle_beta    90.0
_cell_angle_gamma    119.99999999999984

_symmetry_space_group_name_H-M    'P 1'
loop_
_atom_site_label
_atom_site_type_symbol
_atom_site_fract_x
_atom_site_fract_y
_atom_site_fract_z
_atom_site_occupancy
C2   C   0.555555555555557   0.444444444444443   0.375000000000000   1.0000000
N2   N   0.111098166257360   0.055559109876213   0.124904253222657   1.0000000
N2   N   0.611146448621117   0.555626230575563   0.124285323096122   1.0000000
N2   N   0.444459363884202   0.055573002725551   0.124890699212052   1.0000000
N2   N   0.944426997274449   0.555540636115798   0.124890699212052   1.0000000
N2   N   0.777787983567658   0.055560658450497   0.124904002557405   1.0000000
N2   N   0.111100260125043   0.722216796729186   0.625086471791296   1.0000000
N2   N   0.444459363884202   0.722219694491986   0.625109300787947   1.0000000
N2   N   0.277752301942741   0.222217315874173   0.625166836099486   1.0000000
N2   N   0.777782684125827   0.722247698057259   0.625166836099486   1.0000000
N2   N   0.611131680598104   0.222217315874173   0.625166836099486   1.0000000
N2   N   0.944439341549503   0.222212016432342   0.625095997442595   1.0000000
N2   N   0.277783203270814   0.722216796729186   0.124913528208704   1.0000000
N2   N   0.111084492293182   0.222208912813255   0.124886109706249   1.0000000
N2   N   0.444450915544301   0.222235164421938   0.124827409928536   1.0000000
N2   N   0.611131680598104   0.722247698057259   0.124833163900514   1.0000000
N2   N   0.944426997274449   0.722219694491986   0.124890699212052   1.0000000
N2   N   0.777791087186745   0.222208912813255   0.124886109706249   1.0000000
N2   N   0.111103464660285   0.888896535339715   0.625090984861038   1.0000000
N2   N   0.444459737346101   0.888896535339715   0.625090984861038   1.0000000
N2   N   0.277752301942741   0.388868319401897   0.625166836099486   1.0000000
N2   N   0.611146448621117   0.388853551378883   0.625714676903878   1.0000000
N2   N   0.777791087186745   0.888915507706818   0.625113890293751   1.0000000
N2   N   0.944440890123787   0.388872389714475   0.625095746777343   1.0000000
N2   N   0.111098166257360   0.388872389714475   0.124904253222657   1.0000000
N2   N   0.277783203270814   0.888899739874957   0.124913528208704   1.0000000
N2   N   0.611127610285525   0.888901833742640   0.124904253222657   1.0000000
N2   N   0.444373769424437   0.388853551378883   0.124285323096122   1.0000000
N2   N   0.944440890123787   0.888901833742640   0.124904253222657   1.0000000
N2   N   0.777782684125827   0.388868319401897   0.124833163900514   1.0000000
N2   N   0.277780305508014   0.555540636115798   0.625109300787947   1.0000000
N2   N   0.111098166257360   0.055559109876213   0.625095746777343   1.0000000
N2   N   0.611146448621117   0.555626230575563   0.625714676903878   1.0000000
N2   N   0.444459363884202   0.055573002725551   0.625109300787947   1.0000000
N2   N   0.944426997274449   0.555540636115798   0.625109300787947   1.0000000
N2   N   0.111103464660285   0.555540262653899   0.124909015138962   1.0000000
N2   N   0.777787983567658   0.055560658450497   0.625095997442595   1.0000000
N2   N   0.277780305508014   0.055573002725551   0.124890699212052   1.0000000
N2   N   0.444450915544301   0.555549084455699   0.124827409928536   1.0000000
N2   N   0.777764835578062   0.555549084455699   0.124827409928536   1.0000000
N2   N   0.611127610285525   0.055559109876213   0.124904253222657   1.0000000
N2   N   0.444450915544301   0.555549084455699   0.625172590071464   1.0000000
N2   N   0.944439341549503   0.055560658450497   0.124904002557405   1.0000000
N2   N   0.277783203270814   0.722216796729186   0.625086471791296   1.0000000
N2   N   0.111084492293182   0.222208912813255   0.625113890293751   1.0000000
N2   N   0.444450915544301   0.222235164421938   0.625172590071464   1.0000000
N2   N   0.611131680598104   0.722247698057259   0.625166836099486   1.0000000
N2   N   0.944426997274449   0.722219694491986   0.625109300787947   1.0000000
N2   N   0.777791087186745   0.222208912813255   0.625113890293751   1.0000000
N2   N   0.111100260125043   0.722216796729186   0.124913528208704   1.0000000
N2   N   0.444459363884202   0.722219694491986   0.124890699212052   1.0000000
N2   N   0.277752301942741   0.222217315874173   0.124833163900514   1.0000000
N2   N   0.777782684125827   0.722247698057259   0.124833163900514   1.0000000
N2   N   0.611131680598104   0.222217315874173   0.124833163900514   1.0000000
N2   N   0.944439341549503   0.222212016432342   0.124904002557405   1.0000000
N2   N   0.111098166257360   0.388872389714475   0.625095746777343   1.0000000
N2   N   0.277783203270814   0.888899739874957   0.625086471791296   1.0000000
N2   N   0.611127610285525   0.888901833742640   0.625095746777343   1.0000000
N2   N   0.444373769424437   0.388853551378883   0.625714676903878   1.0000000
N2   N   0.944440890123787   0.888901833742640   0.625095746777343   1.0000000
N2   N   0.111103464660285   0.888896535339715   0.124909015138962   1.0000000
N2   N   0.777782684125827   0.388868319401897   0.625166836099486   1.0000000
N2   N   0.444459737346101   0.888896535339715   0.124909015138962   1.0000000
N2   N   0.277752301942741   0.388868319401897   0.124833163900514   1.0000000
N2   N   0.277780305508014   0.555540636115798   0.124890699212052   1.0000000
N2   N   0.611146448621117   0.388853551378883   0.124285323096122   1.0000000
N2   N   0.777791087186745   0.888915507706818   0.124886109706249   1.0000000
N2   N   0.944440890123787   0.388872389714475   0.124904253222657   1.0000000
N2   N   0.111103464660285   0.555540262653899   0.625090984861038   1.0000000
N2   N   0.277780305508014   0.055573002725551   0.625109300787947   1.0000000
N2   N   0.777764835578062   0.555549084455699   0.625172590071464   1.0000000
N2   N   0.611127610285525   0.055559109876213   0.625095746777343   1.0000000
N2   N   0.944439341549503   0.055560658450497   0.625095997442595   1.0000000
N2   N   0.055315387132956   0.110926696121850   0.375000000000000   1.0000000
N2   N   0.555627535116123   0.613424412028334   0.375000000000000   1.0000000
N2   N   0.388532138357939   0.110397610049220   0.375000000000000   1.0000000
N2   N   0.889602389950780   0.611467861642061   0.375000000000000   1.0000000
N2   N   0.722277975655558   0.110926696121850   0.375000000000000   1.0000000
N2   N   0.055559881303714   0.777778996594046   0.875000000000000   1.0000000
N2   N   0.388885781956997   0.777778996594046   0.875000000000000   1.0000000
N2   N   0.222226920349852   0.277780126841594   0.875000000000000   1.0000000
N2   N   0.722219873158407   0.777773079650148   0.875000000000000   1.0000000
N2   N   0.555550197377772   0.277773891026908   0.875000000000000   1.0000000
N2   N   0.888890524857804   0.277782484346289   0.875000000000000   1.0000000
N2   N   0.222222222222221   0.777777777777779   0.375000000000000   1.0000000
N2   N   0.055315387132956   0.277722024344442   0.375000000000000   1.0000000
N2   N   0.386575587971667   0.275536456421125   0.375000000000000   1.0000000
N2   N   0.555410119961355   0.778655687153231   0.375000000000000   1.0000000
N2   N   0.889912233858540   0.778655687153231   0.375000000000000   1.0000000
N2   N   0.722636353778171   0.277363646221829   0.375000000000000   1.0000000
N2   N   0.055558569665363   0.944441430334637   0.875000000000000   1.0000000
N2   N   0.388885781956997   0.944440118696286   0.875000000000000   1.0000000
N2   N   0.222223236496675   0.444449647761295   0.875000000000000   1.0000000
N2   N   0.555555555555557   0.444444444444443   0.875000000000000   1.0000000
N2   N   0.722217515653711   0.944441373844851   0.875000000000000   1.0000000
N2   N   0.888893077931284   0.444449647761295   0.875000000000000   1.0000000
N2   N   0.055626851492032   0.444587036317392   0.375000000000000   1.0000000
N2   N   0.222112455839142   0.944130868434379   0.375000000000000   1.0000000
N2   N   0.555412963682608   0.944373148507968   0.375000000000000   1.0000000
N2   N   0.386575587971667   0.444372464883877   0.375000000000000   1.0000000
N2   N   0.889073303878150   0.944684612867044   0.375000000000000   1.0000000
N2   N   0.724463543578875   0.444372464883877   0.375000000000000   1.0000000
N2   N   0.222221003405954   0.611114218043003   0.875000000000000   1.0000000
N2   N   0.055558626155150   0.111109475142196   0.875000000000000   1.0000000
N2   N   0.555550197377772   0.611109639684200   0.875000000000000   1.0000000
N2   N   0.388884750224731   0.111102833782804   0.875000000000000   1.0000000
N2   N   0.888897166217196   0.611115249775270   0.875000000000000   1.0000000
N2   N   0.055869131565621   0.611314920738099   0.375000000000000   1.0000000
N2   N   0.722217515653711   0.111109475142196   0.875000000000000   1.0000000
N2   N   0.221344312846769   0.110087766141460   0.375000000000000   1.0000000
N2   N   0.388532138357939   0.611467861642061   0.375000000000000   1.0000000
N2   N   0.724463543578875   0.613424412028334   0.375000000000000   1.0000000
N2   N   0.555410119961355   0.110087766141460   0.375000000000000   1.0000000
N2   N   0.388884750224731   0.611115249775270   0.875000000000000   1.0000000
N2   N   0.888888888888886   0.111111111111114   0.375000000000000   1.0000000
N2   N   0.222222222222221   0.777777777777779   0.875000000000000   1.0000000
N2   N   0.055558626155150   0.277782484346289   0.875000000000000   1.0000000
N2   N   0.388890360315800   0.277773891026908   0.875000000000000   1.0000000
N2   N   0.555550352238705   0.777776763503324   0.875000000000000   1.0000000
N2   N   0.888893077931284   0.777776763503324   0.875000000000000   1.0000000
N2   N   0.722219873158407   0.277780126841594   0.875000000000000   1.0000000
N2   N   0.055869131565621   0.777887544160858   0.375000000000000   1.0000000
N2   N   0.388685079261901   0.777887544160858   0.375000000000000   1.0000000
N2   N   0.221393959110323   0.277363646221829   0.375000000000000   1.0000000
N2   N   0.722636353778171   0.778606040889677   0.375000000000000   1.0000000
N2   N   0.555627535116123   0.275536456421125   0.375000000000000   1.0000000
N2   N   0.889073303878150   0.277722024344442   0.375000000000000   1.0000000
N2   N   0.055558569665363   0.444450472664055   0.875000000000000   1.0000000
N2   N   0.222221003405954   0.944440118696286   0.875000000000000   1.0000000
N2   N   0.555549527335944   0.944441430334637   0.875000000000000   1.0000000
N2   N   0.388890360315800   0.444449802622228   0.875000000000000   1.0000000
N2   N   0.888890524857804   0.944441373844851   0.875000000000000   1.0000000
N2   N   0.055626851492032   0.944373148507968   0.375000000000000   1.0000000
N2   N   0.722226108973092   0.444449802622228   0.875000000000000   1.0000000
N2   N   0.388685079261901   0.944130868434379   0.375000000000000   1.0000000
N2   N   0.221344312846769   0.444589880038645   0.375000000000000   1.0000000
N2   N   0.222112455839142   0.611314920738099   0.375000000000000   1.0000000
N2   N   0.722277975655558   0.944684612867044   0.375000000000000   1.0000000
N2   N   0.889912233858540   0.444589880038645   0.375000000000000   1.0000000
N2   N   0.055559881303714   0.611114218043003   0.875000000000000   1.0000000
N2   N   0.222223236496675   0.111106922068716   0.875000000000000   1.0000000
N2   N   0.722226108973092   0.611109639684200   0.875000000000000   1.0000000
N2   N   0.555550352238705   0.111106922068716   0.875000000000000   1.0000000
N2   N   0.888888888888886   0.111111111111114   0.875000000000000   1.0000000
B2   B   0.110883299719728   0.055272403980390   0.375000000000000   1.0000000
B2   B   0.611863290356731   0.557059914046791   0.375000000000000   1.0000000
B2   B   0.444300546295860   0.055370129841785   0.375000000000000   1.0000000
B2   B   0.944629870158215   0.555699453704140   0.375000000000000   1.0000000
B2   B   0.777782820323368   0.055558076828352   0.375000000000000   1.0000000
B2   B   0.111102348092813   0.722217840713071   0.875000000000000   1.0000000
B2   B   0.444446902337712   0.722197672706977   0.875000000000000   1.0000000
B2   B   0.277839019579637   0.222261567886010   0.875000000000000   1.0000000
B2   B   0.777738432113990   0.722160980420363   0.875000000000000   1.0000000
B2   B   0.611089214973044   0.222261567886010   0.875000000000000   1.0000000
B2   B   0.944451020846021   0.222235375025378   0.875000000000000   1.0000000
B2   B   0.277732152026430   0.722267847973570   0.375000000000000   1.0000000
B2   B   0.111031832072637   0.222182582702983   0.375000000000000   1.0000000
B2   B   0.444532989905541   0.222399313144417   0.375000000000000   1.0000000
B2   B   0.610942057471299   0.722882252678901   0.375000000000000   1.0000000
B2   B   0.944629870158215   0.722263749787410   0.375000000000000   1.0000000
B2   B   0.777817417297017   0.222182582702983   0.375000000000000   1.0000000
B2   B   0.111113414582410   0.888886585417590   0.875000000000000   1.0000000
B2   B   0.444439837501852   0.888886585417590   0.875000000000000   1.0000000
B2   B   0.277839019579637   0.388910785026956   0.875000000000000   1.0000000
B2   B   0.611084023384396   0.388915976615604   0.875000000000000   1.0000000
B2   B   0.777756584442730   0.888846502218788   0.875000000000000   1.0000000
B2   B   0.944434001250022   0.388904673490240   0.875000000000000   1.0000000
B2   B   0.110883299719728   0.388944229072667   0.375000000000000   1.0000000
B2   B   0.277732152026430   0.888797637386188   0.375000000000000   1.0000000
B2   B   0.611055770927333   0.889116700280272   0.375000000000000   1.0000000
B2   B   0.442940085953210   0.388136709643269   0.375000000000000   1.0000000
B2   B   0.944727596019610   0.889116700280272   0.375000000000000   1.0000000
B2   B   0.778606861874274   0.389057942528701   0.375000000000000   1.0000000
B2   B   0.277802327293023   0.555553097662288   0.875000000000000   1.0000000
B2   B   0.111137338906889   0.055565998749978   0.875000000000000   1.0000000
B2   B   0.611084023384396   0.555501380102120   0.875000000000000   1.0000000
B2   B   0.444446902337712   0.055582562964070   0.875000000000000   1.0000000
B2   B   0.944417437035930   0.555553097662288   0.875000000000000   1.0000000
B2   B   0.111176093923889   0.555685521181107   0.375000000000000   1.0000000
B2   B   0.777764624974622   0.055548979153979   0.875000000000000   1.0000000
B2   B   0.277736250212589   0.055370129841785   0.375000000000000   1.0000000
B2   B   0.444532989905541   0.555467010094459   0.375000000000000   1.0000000
B2   B   0.777600686855583   0.555467010094459   0.375000000000000   1.0000000
B2   B   0.611055770927333   0.055272403980390   0.375000000000000   1.0000000
B2   B   0.444467461921335   0.555532538078665   0.875000000000000   1.0000000
B2   B   0.944441923171648   0.055558076828352   0.375000000000000   1.0000000
B2   B   0.277782159286930   0.722217840713071   0.875000000000000   1.0000000
B2   B   0.111153497781212   0.222243415557270   0.875000000000000   1.0000000
B2   B   0.444467461921335   0.222268257176006   0.875000000000000   1.0000000
B2   B   0.611089214973044   0.722160980420363   0.875000000000000   1.0000000
B2   B   0.944417437035930   0.722197672706977   0.875000000000000   1.0000000
B2   B   0.777756584442730   0.222243415557270   0.875000000000000   1.0000000
B2   B   0.111202362613812   0.722267847973570   0.375000000000000   1.0000000
B2   B   0.444300546295860   0.722263749787410   0.375000000000000   1.0000000
B2   B   0.277117747321099   0.221393138125727   0.375000000000000   1.0000000
B2   B   0.778606861874274   0.722882252678901   0.375000000000000   1.0000000
B2   B   0.610942057471299   0.221393138125727   0.375000000000000   1.0000000
B2   B   0.944441923171648   0.222217179676632   0.375000000000000   1.0000000
B2   B   0.111137338906889   0.388904673490240   0.875000000000000   1.0000000
B2   B   0.277782159286930   0.888897651907188   0.875000000000000   1.0000000
B2   B   0.611095326509760   0.888862661093111   0.875000000000000   1.0000000
B2   B   0.444498619897880   0.388915976615604   0.875000000000000   1.0000000
B2   B   0.944434001250022   0.888862661093111   0.875000000000000   1.0000000
B2   B   0.111176093923889   0.888823906076111   0.375000000000000   1.0000000
B2   B   0.777738432113990   0.388910785026956   0.875000000000000   1.0000000
B2   B   0.444314478818894   0.888823906076111   0.375000000000000   1.0000000
B2   B   0.277117747321099   0.389057942528701   0.375000000000000   1.0000000
B2   B   0.277736250212589   0.555699453704140   0.375000000000000   1.0000000
B2   B   0.611863290356731   0.388136709643269   0.375000000000000   1.0000000
B2   B   0.777817417297017   0.888968167927363   0.375000000000000   1.0000000
B2   B   0.944727596019610   0.388944229072667   0.375000000000000   1.0000000
B2   B   0.111113414582410   0.555560162498148   0.875000000000000   1.0000000
B2   B   0.277802327293023   0.055582562964070   0.875000000000000   1.0000000
B2   B   0.777731742823994   0.555532538078665   0.875000000000000   1.0000000
B2   B   0.611095326509760   0.055565998749978   0.875000000000000   1.0000000
B2   B   0.944451020846021   0.055548979153979   0.875000000000000   1.0000000
B2   B   0.055578899751725   0.111141202994746   0.125087747715363   1.0000000
B2   B   0.555620695630200   0.610950999558508   0.125263654855818   1.0000000
B2   B   0.388994717315748   0.111322767964839   0.125179992831776   1.0000000
B2   B   0.888677232035161   0.611005282684252   0.125179992831776   1.0000000
B2   B   0.722228969909685   0.111141202994746   0.125087747715363   1.0000000
B2   B   0.055471352485683   0.777748498184661   0.624917745828691   1.0000000
B2   B   0.388943812365643   0.777748498184661   0.624917745828691   1.0000000
B2   B   0.222318226115749   0.277825779724542   0.624837317592056   1.0000000
B2   B   0.722174220275458   0.777681773884251   0.624837317592056   1.0000000
B2   B   0.555620695630200   0.278003029405029   0.624736345144182   1.0000000
B2   B   0.888858797005254   0.277771030090315   0.624912252284637   1.0000000
B2   B   0.222222222222221   0.777777777777779   0.125069544601803   1.0000000
B2   B   0.055578899751725   0.277771030090315   0.125087747715363   1.0000000
B2   B   0.389049000441492   0.278003029405029   0.125263654855818   1.0000000
B2   B   0.555604384248624   0.777699485109557   0.125134739710399   1.0000000
B2   B   0.888761767527598   0.777699485109557   0.125134739710399   1.0000000
B2   B   0.722174220275458   0.277825779724542   0.125162682407944   1.0000000
B2   B   0.055534918434204   0.944465081565796   0.624917034390831   1.0000000
B2   B   0.388943812365643   0.944528647514318   0.624917745828691   1.0000000
B2   B   0.222300514890443   0.444395615751376   0.624865260289601   1.0000000
B2   B   0.555555555555557   0.444444444444443   0.623400534251016   1.0000000
B2   B   0.722228969909685   0.944421100248275   0.624912252284637   1.0000000
B2   B   0.888761767527598   0.444395615751376   0.624865260289601   1.0000000
B2   B   0.055534918434204   0.444403170201736   0.125082965609169   1.0000000
B2   B   0.222251501815339   0.944528647514318   0.125082254171309   1.0000000
B2   B   0.555596829798264   0.944465081565796   0.125082965609169   1.0000000
B2   B   0.389049000441492   0.444379304369800   0.125263654855818   1.0000000
B2   B   0.888858797005254   0.944421100248275   0.125087747715363   1.0000000
B2   B   0.721996970594971   0.444379304369800   0.125263654855818   1.0000000
B2   B   0.222251501815339   0.611056187634357   0.624917745828691   1.0000000
B2   B   0.055578899751725   0.111141202994746   0.624912252284637   1.0000000
B2   B   0.555620695630200   0.610950999558508   0.624736345144182   1.0000000
B2   B   0.388994717315748   0.111322767964839   0.624820007168224   1.0000000
B2   B   0.888677232035161   0.611005282684252   0.624820007168224   1.0000000
B2   B   0.055471352485683   0.611056187634357   0.125082254171309   1.0000000
B2   B   0.722228969909685   0.111141202994746   0.624912252284637   1.0000000
B2   B   0.222300514890443   0.111238232472402   0.125134739710399   1.0000000
B2   B   0.388994717315748   0.611005282684252   0.125179992831776   1.0000000
B2   B   0.721996970594971   0.610950999558508   0.125263654855818   1.0000000
B2   B   0.555604384248624   0.111238232472402   0.125134739710399   1.0000000
B2   B   0.388994717315748   0.611005282684252   0.624820007168224   1.0000000
B2   B   0.888888888888886   0.111111111111114   0.125074161950428   1.0000000
B2   B   0.222222222222221   0.777777777777779   0.624930455398197   1.0000000
B2   B   0.055578899751725   0.277771030090315   0.624912252284637   1.0000000
B2   B   0.389049000441492   0.278003029405029   0.624736345144182   1.0000000
B2   B   0.555604384248624   0.777699485109557   0.624865260289601   1.0000000
B2   B   0.888761767527598   0.777699485109557   0.624865260289601   1.0000000
B2   B   0.722174220275458   0.277825779724542   0.624837317592056   1.0000000
B2   B   0.055471352485683   0.777748498184661   0.125082254171309   1.0000000
B2   B   0.388943812365643   0.777748498184661   0.125082254171309   1.0000000
B2   B   0.222318226115749   0.277825779724542   0.125162682407944   1.0000000
B2   B   0.722174220275458   0.777681773884251   0.125162682407944   1.0000000
B2   B   0.555620695630200   0.278003029405029   0.125263654855818   1.0000000
B2   B   0.888858797005254   0.277771030090315   0.125087747715363   1.0000000
B2   B   0.055534918434204   0.444403170201736   0.624917034390831   1.0000000
B2   B   0.222251501815339   0.944528647514318   0.624917745828691   1.0000000
B2   B   0.555596829798264   0.944465081565796   0.624917034390831   1.0000000
B2   B   0.389049000441492   0.444379304369800   0.624736345144182   1.0000000
B2   B   0.888858797005254   0.944421100248275   0.624912252284637   1.0000000
B2   B   0.055534918434204   0.944465081565796   0.125082965609169   1.0000000
B2   B   0.721996970594971   0.444379304369800   0.624736345144182   1.0000000
B2   B   0.388943812365643   0.944528647514318   0.125082254171309   1.0000000
B2   B   0.222300514890443   0.444395615751376   0.125134739710399   1.0000000
B2   B   0.222251501815339   0.611056187634357   0.125082254171309   1.0000000
B2   B   0.555555555555557   0.444444444444443   0.126599465748983   1.0000000
B2   B   0.722228969909685   0.944421100248275   0.125087747715363   1.0000000
B2   B   0.888761767527598   0.444395615751376   0.125134739710399   1.0000000
B2   B   0.055471352485683   0.611056187634357   0.624917745828691   1.0000000
B2   B   0.222300514890443   0.111238232472402   0.624865260289601   1.0000000
B2   B   0.721996970594971   0.610950999558508   0.624736345144182   1.0000000
B2   B   0.555604384248624   0.111238232472402   0.624865260289601   1.0000000
B2   B   0.888888888888886   0.111111111111114   0.624925838049572   1.0000000


