data_1
_audit_creation_method   'vasp2cif'
_cell_length_a    14.93631414619966
_cell_length_b    14.936314146199727
_cell_length_c    13.341276283792837
_cell_angle_alpha    90.0
_cell_angle_beta    90.0
_cell_angle_gamma    119.99999999999984

_symmetry_space_group_name_H-M    'P 1'
loop_
_atom_site_label
_atom_site_type_symbol
_atom_site_fract_x
_atom_site_fract_y
_atom_site_fract_z
_atom_site_occupancy
Ge2   Ge   0.479100645351885   0.406216989342611   0.375000000000000   1.0000000
N2   N   0.111158099346809   0.055560007026993   0.125133151224168   1.0000000
N2   N   0.611171773844551   0.555605328606358   0.125675202826321   1.0000000
N2   N   0.444493001322227   0.055561989951431   0.125134350444829   1.0000000
N2   N   0.944495108771044   0.555585838402664   0.125185002480888   1.0000000
N2   N   0.777833169615427   0.055583251474381   0.125006186635548   1.0000000
N2   N   0.111161362884500   0.722247348108921   0.624929949283653   1.0000000
N2   N   0.444493001322227   0.722264344704126   0.624865649555170   1.0000000
N2   N   0.277824337984948   0.222227460667307   0.624682637009607   1.0000000
N2   N   0.777821114245879   0.722234907381976   0.624583595024194   1.0000000
N2   N   0.611154211728046   0.222234470087658   0.624639002035837   1.0000000
N2   N   0.944502085794518   0.222258937884965   0.624911735205329   1.0000000
N2   N   0.277827587290375   0.722256746918343   0.125044690284665   1.0000000
N2   N   0.111169628662182   0.222251480997759   0.125237008561268   1.0000000
N2   N   0.444503807688749   0.222228322779747   0.125515626816772   1.0000000
N2   N   0.611154211728046   0.722253074973709   0.125360997964163   1.0000000
N2   N   0.944495108771044   0.722242603701723   0.125185002480888   1.0000000
N2   N   0.777826752124635   0.222255015343697   0.125118806272725   1.0000000
N2   N   0.111160492319542   0.888899807256770   0.624931828482378   1.0000000
N2   N   0.444494791570751   0.888914062452043   0.625031150490991   1.0000000
N2   N   0.277824337984948   0.388930210650970   0.624682637009607   1.0000000
N2   N   0.611171773844551   0.388899778571514   0.624324797173686   1.0000000
N2   N   0.777826752124635   0.888905070114266   0.624881193727268   1.0000000
N2   N   0.944495403955131   0.388928702860290   0.624901308877516   1.0000000
N2   N   0.111158099346809   0.388931425653144   0.125133151224168   1.0000000
N2   N   0.277827587290375   0.888904173705368   0.125044690284665   1.0000000
N2   N   0.611159655893242   0.888918904768110   0.125014202205744   1.0000000
N2   N   0.444453893025150   0.388893613179247   0.126333808767739   1.0000000
N2   N   0.944495403955131   0.888900034428177   0.125098691122490   1.0000000
N2   N   0.777821114245879   0.388919540197224   0.125416404975812   1.0000000
N2   N   0.277827671060546   0.555601589811115   0.624813816619012   1.0000000
N2   N   0.111158099346809   0.055560007026993   0.624866848775838   1.0000000
N2   N   0.611171773844551   0.555605328606358   0.624324797173686   1.0000000
N2   N   0.444493001322227   0.055561989951431   0.624865649555170   1.0000000
N2   N   0.944495108771044   0.555585838402664   0.624814997519119   1.0000000
N2   N   0.111160492319542   0.555594018396102   0.125068171517630   1.0000000
N2   N   0.777833169615427   0.055583251474381   0.624993813364445   1.0000000
N2   N   0.277827671060546   0.055559414582782   0.125186183380987   1.0000000
N2   N   0.444503807688749   0.555608818242332   0.125515626816772   1.0000000
N2   N   0.777826659419545   0.555579996376436   0.125597200035742   1.0000000
N2   N   0.611159655893242   0.055574084458462   0.125014202205744   1.0000000
N2   N   0.444503807688749   0.555608818242332   0.624484373183227   1.0000000
N2   N   0.944502085794518   0.055576481242890   0.125088264794664   1.0000000
N2   N   0.277827587290375   0.722256746918343   0.624955309715321   1.0000000
N2   N   0.111169628662182   0.222251480997759   0.624762991438731   1.0000000
N2   N   0.444503807688749   0.222228322779747   0.624484373183227   1.0000000
N2   N   0.611154211728046   0.722253074973709   0.624639002035837   1.0000000
N2   N   0.944495108771044   0.722242603701723   0.624814997519119   1.0000000
N2   N   0.777826752124635   0.222255015343697   0.624881193727268   1.0000000
N2   N   0.111161362884500   0.722247348108921   0.125070050716353   1.0000000
N2   N   0.444493001322227   0.722264344704126   0.125134350444829   1.0000000
N2   N   0.277824337984948   0.222227460667307   0.125317362990393   1.0000000
N2   N   0.777821114245879   0.722234907381976   0.125416404975812   1.0000000
N2   N   0.611154211728046   0.222234470087658   0.125360997964163   1.0000000
N2   N   0.944502085794518   0.222258937884965   0.125088264794664   1.0000000
N2   N   0.111158099346809   0.388931425653144   0.624866848775838   1.0000000
N2   N   0.277827587290375   0.888904173705368   0.624955309715321   1.0000000
N2   N   0.611159655893242   0.888918904768110   0.624985797794256   1.0000000
N2   N   0.444453893025150   0.388893613179247   0.623666191232275   1.0000000
N2   N   0.944495403955131   0.888900034428177   0.624901308877516   1.0000000
N2   N   0.111160492319542   0.888899807256770   0.125068171517630   1.0000000
N2   N   0.777821114245879   0.388919540197224   0.624583595024194   1.0000000
N2   N   0.444494791570751   0.888914062452043   0.124968849509002   1.0000000
N2   N   0.277824337984948   0.388930210650970   0.125317362990393   1.0000000
N2   N   0.277827671060546   0.555601589811115   0.125186183380987   1.0000000
N2   N   0.611171773844551   0.388899778571514   0.125675202826321   1.0000000
N2   N   0.777826752124635   0.888905070114266   0.125118806272725   1.0000000
N2   N   0.944495403955131   0.388928702860290   0.125098691122490   1.0000000
N2   N   0.111160492319542   0.555594018396102   0.624931828482378   1.0000000
N2   N   0.277827671060546   0.055559414582782   0.624813816619012   1.0000000
N2   N   0.777826659419545   0.555579996376436   0.624402799964251   1.0000000
N2   N   0.611159655893242   0.055574084458462   0.624985797794256   1.0000000
N2   N   0.944502085794518   0.055576481242890   0.624911735205329   1.0000000
N2   N   0.056165042887974   0.111540298453698   0.375000000000000   1.0000000
N2   N   0.553728553632942   0.613173659311582   0.375000000000000   1.0000000
N2   N   0.387134753887856   0.106036257729963   0.375000000000000   1.0000000
N2   N   0.887393765823566   0.610363549578465   0.375000000000000   1.0000000
N2   N   0.722343885826765   0.110882086187084   0.375000000000000   1.0000000
N2   N   0.055490784091085   0.777746822991762   0.875000000000000   1.0000000
N2   N   0.388834448447757   0.777749646512888   0.875000000000000   1.0000000
N2   N   0.222153416234013   0.277743374783677   0.875000000000000   1.0000000
N2   N   0.722161978595406   0.777746582132641   0.875000000000000   1.0000000
N2   N   0.555493864711033   0.277749716633011   0.875000000000000   1.0000000
N2   N   0.888827652534446   0.277748031302375   0.875000000000000   1.0000000
N2   N   0.220467728596263   0.776900530964797   0.375000000000000   1.0000000
N2   N   0.056165042887974   0.277958077767612   0.375000000000000   1.0000000
N2   N   0.388792830255267   0.270071455630348   0.375000000000000   1.0000000
N2   N   0.554979781627176   0.778986239409162   0.375000000000000   1.0000000
N2   N   0.887800306061995   0.777279653202802   0.375000000000000   1.0000000
N2   N   0.721971095697582   0.277041718583225   0.375000000000000   1.0000000
N2   N   0.055489125710168   0.944412593480230   0.875000000000000   1.0000000
N2   N   0.388834448447757   0.944418135268189   0.875000000000000   1.0000000
N2   N   0.222154956232775   0.444410067111411   0.875000000000000   1.0000000
N2   N   0.555488478654875   0.444410905994102   0.875000000000000   1.0000000
N2   N   0.722163179487873   0.944414201339092   0.875000000000000   1.0000000
N2   N   0.888826403591995   0.444413058213966   0.875000000000000   1.0000000
N2   N   0.054769631585554   0.444170593302904   0.375000000000000   1.0000000
N2   N   0.220468241969807   0.942674212159467   0.375000000000000   1.0000000
N2   N   0.555136295792156   0.944234814562747   0.375000000000000   1.0000000
N2   N   0.388792830255267   0.452054707958255   0.375000000000000   1.0000000
N2   N   0.888936004655947   0.944747630390806   0.375000000000000   1.0000000
N2   N   0.720867372729211   0.444365724232060   0.375000000000000   1.0000000
N2   N   0.222158922543224   0.611077500728630   0.875000000000000   1.0000000
N2   N   0.055487286119511   0.111077038985269   0.875000000000000   1.0000000
N2   N   0.555493864711033   0.611077481411379   0.875000000000000   1.0000000
N2   N   0.388829441476804   0.111083415452592   0.875000000000000   1.0000000
N2   N   0.888823808082899   0.611078570708121   0.875000000000000   1.0000000
N2   N   0.053875540558806   0.610406969565947   0.375000000000000   1.0000000
N2   N   0.722163179487873   0.111082311482116   0.875000000000000   1.0000000
N2   N   0.221901267399502   0.110123062913796   0.375000000000000   1.0000000
N2   N   0.387134753887856   0.614431829491237   0.375000000000000   1.0000000
N2   N   0.720867372729211   0.609834981830481   0.375000000000000   1.0000000
N2   N   0.554979781627176   0.109326875551334   0.375000000000000   1.0000000
N2   N   0.388829441476804   0.611079359357556   0.875000000000000   1.0000000
N2   N   0.889295358934682   0.111314346134013   0.375000000000000   1.0000000
N2   N   0.222162638027541   0.777747985680438   0.875000000000000   1.0000000
N2   N   0.055487286119511   0.277743580467578   0.875000000000000   1.0000000
N2   N   0.388827701200109   0.277748552129553   0.875000000000000   1.0000000
N2   N   0.555497894821690   0.777747320453610   0.875000000000000   1.0000000
N2   N   0.888826403591995   0.777746678711351   0.875000000000000   1.0000000
N2   N   0.722161978595406   0.277748729796101   0.875000000000000   1.0000000
N2   N   0.053875540558806   0.776801904326195   0.375000000000000   1.0000000
N2   N   0.387585840107384   0.778328173367039   0.375000000000000   1.0000000
N2   N   0.224109111218900   0.278721222276114   0.375000000000000   1.0000000
N2   N   0.721971095697582   0.778262710447706   0.375000000000000   1.0000000
N2   N   0.553728553632942   0.273888227654680   0.375000000000000   1.0000000
N2   N   0.888936004655947   0.277521707598490   0.375000000000000   1.0000000
N2   N   0.055489125710168   0.444409865563259   0.875000000000000   1.0000000
N2   N   0.222158922543224   0.944414755147923   0.875000000000000   1.0000000
N2   N   0.555500611835312   0.944416972584328   0.875000000000000   1.0000000
N2   N   0.388827701200109   0.444412482403891   0.875000000000000   1.0000000
N2   N   0.888827652534446   0.944412954565407   0.875000000000000   1.0000000
N2   N   0.054769631585554   0.943932371615986   0.375000000000000   1.0000000
N2   N   0.722157335455027   0.444413269507390   0.875000000000000   1.0000000
N2   N   0.387585840107384   0.942591000073681   0.375000000000000   1.0000000
N2   N   0.221901267399502   0.445111537819048   0.375000000000000   1.0000000
N2   N   0.220468241969807   0.611127363143691   0.375000000000000   1.0000000
N2   N   0.722343885826765   0.944795132973007   0.375000000000000   1.0000000
N2   N   0.887800306061995   0.443853986192543   0.375000000000000   1.0000000
N2   N   0.055490784091085   0.611077294432653   0.875000000000000   1.0000000
N2   N   0.222154956232775   0.111078222454700   0.875000000000000   1.0000000
N2   N   0.722157335455027   0.611077399280980   0.875000000000000   1.0000000
N2   N   0.555497894821690   0.111083907701409   0.875000000000000   1.0000000
N2   N   0.888827184854116   0.111080259093729   0.875000000000000   1.0000000
B2   B   0.110698561407540   0.055095728091422   0.375000000000000   1.0000000
B2   B   0.613836681734144   0.565022971371021   0.375000000000000   1.0000000
B2   B   0.443688412668037   0.052381538167902   0.375000000000000   1.0000000
B2   B   0.943361223900289   0.554919568516284   0.375000000000000   1.0000000
B2   B   0.778288393243541   0.055810863288435   0.375000000000000   1.0000000
B2   B   0.111059632364709   0.722196482849025   0.875000000000000   1.0000000
B2   B   0.444381720092831   0.722214177670386   0.875000000000000   1.0000000
B2   B   0.277658042399648   0.222153329062777   0.875000000000000   1.0000000
B2   B   0.777747225804655   0.722235807532861   0.875000000000000   1.0000000
B2   B   0.611064513072861   0.222160942520015   0.875000000000000   1.0000000
B2   B   0.944376238791126   0.222180039779455   0.875000000000000   1.0000000
B2   B   0.276322486954210   0.722079520686502   0.375000000000000   1.0000000
B2   B   0.112129667415072   0.222731500374197   0.375000000000000   1.0000000
B2   B   0.442181185332430   0.214530357895843   0.375000000000000   1.0000000
B2   B   0.611491701788800   0.725457576757029   0.375000000000000   1.0000000
B2   B   0.943361223900289   0.721774988717311   0.375000000000000   1.0000000
B2   B   0.778163984814299   0.221634469872075   0.375000000000000   1.0000000
B2   B   0.111047033286387   0.888861337932952   0.875000000000000   1.0000000
B2   B   0.444391074221391   0.888862203777356   0.875000000000000   1.0000000
B2   B   0.277658042399648   0.388838046670206   0.875000000000000   1.0000000
B2   B   0.611063891183913   0.388841548406986   0.875000000000000   1.0000000
B2   B   0.777735061818590   0.888892842656506   0.875000000000000   1.0000000
B2   B   0.944393172780364   0.388845997135477   0.875000000000000   1.0000000
B2   B   0.110698561407540   0.388936166649447   0.375000000000000   1.0000000
B2   B   0.276322486954210   0.887576299601028   0.375000000000000   1.0000000
B2   B   0.611337969044249   0.889889007384755   0.375000000000000   1.0000000
B2   B   0.943958042571879   0.888930532293572   0.375000000000000   1.0000000
B2   B   0.777610734858398   0.387684085480062   0.375000000000000   1.0000000
B2   B   0.277691331113462   0.555526906411244   0.875000000000000   1.0000000
B2   B   0.111021589940292   0.055513071581511   0.875000000000000   1.0000000
B2   B   0.611063891183913   0.555555676110239   0.875000000000000   1.0000000
B2   B   0.444381720092831   0.055500875755788   0.875000000000000   1.0000000
B2   B   0.944408883556289   0.555528792642931   0.875000000000000   1.0000000
B2   B   0.109621922886044   0.555149831728379   0.375000000000000   1.0000000
B2   B   0.777728433844236   0.055530883588786   0.875000000000000   1.0000000
B2   B   0.276010847196762   0.053045316161017   0.375000000000000   1.0000000
B2   B   0.442181185332430   0.560984160769923   0.375000000000000   1.0000000
B2   B   0.777670307759942   0.555501820546639   0.375000000000000   1.0000000
B2   B   0.611337969044249   0.054782294992823   0.375000000000000   1.0000000
B2   B   0.444363537674581   0.555547292416321   0.875000000000000   1.0000000
B2   B   0.944967315655056   0.056039439372126   0.375000000000000   1.0000000
B2   B   0.277715316374172   0.722196117340819   0.875000000000000   1.0000000
B2   B   0.111005855005503   0.222169594169416   0.875000000000000   1.0000000
B2   B   0.444363537674581   0.222149578591589   0.875000000000000   1.0000000
B2   B   0.611064513072861   0.722236903886176   0.875000000000000   1.0000000
B2   B   0.944408883556289   0.722213424246696   0.875000000000000   1.0000000
B2   B   0.777735061818590   0.222175552495398   0.875000000000000   1.0000000
B2   B   0.109544776738879   0.721439055036108   0.375000000000000   1.0000000
B2   B   0.443688412668037   0.724640207833485   0.375000000000000   1.0000000
B2   B   0.277820425691074   0.221190668510119   0.375000000000000   1.0000000
B2   B   0.777610734858398   0.723259982711659   0.375000000000000   1.0000000
B2   B   0.611491701788800   0.219367458365115   0.375000000000000   1.0000000
B2   B   0.944967315655056   0.222261209616258   0.375000000000000   1.0000000
B2   B   0.111021589940292   0.388841851692104   0.875000000000000   1.0000000
B2   B   0.277715316374172   0.888852532366667   0.875000000000000   1.0000000
B2   B   0.611063724709972   0.888880290987023   0.875000000000000   1.0000000
B2   B   0.444347568651194   0.388840450992265   0.875000000000000   1.0000000
B2   B   0.944393172780364   0.888880508978208   0.875000000000000   1.0000000
B2   B   0.109621922886044   0.887805424491001   0.375000000000000   1.0000000
B2   B   0.777747225804655   0.388844751605129   0.875000000000000   1.0000000
B2   B   0.443870936124658   0.888602134728987   0.375000000000000   1.0000000
B2   B   0.277820425691074   0.389963090514291   0.375000000000000   1.0000000
B2   B   0.276010847196762   0.556298864369073   0.375000000000000   1.0000000
B2   B   0.613836681734144   0.382147043696453   0.375000000000000   1.0000000
B2   B   0.778163984814299   0.889862848275559   0.375000000000000   1.0000000
B2   B   0.943958042571879   0.388360843611621   0.375000000000000   1.0000000
B2   B   0.111047033286387   0.555519028686773   0.875000000000000   1.0000000
B2   B   0.277691331113462   0.055497758035554   0.875000000000000   1.0000000
B2   B   0.777751284394225   0.555542308863781   0.875000000000000   1.0000000
B2   B   0.611063724709972   0.055516767056278   0.875000000000000   1.0000000
B2   B   0.944376238791126   0.055529532345015   0.875000000000000   1.0000000
B2   B   0.055585115538773   0.111108473809032   0.124975166597635   1.0000000
B2   B   0.555586431770535   0.611284494952284   0.124999321675520   1.0000000
B2   B   0.388847810645947   0.110943964865305   0.124972963851961   1.0000000
B2   B   0.889092209077907   0.611212771205621   0.124966877779181   1.0000000
B2   B   0.722280492869095   0.111105325044043   0.124825777045569   1.0000000
B2   B   0.055677210921619   0.777829508226847   0.625120028376500   1.0000000
B2   B   0.388898027026166   0.777837334825491   0.625175645307698   1.0000000
B2   B   0.222163059430399   0.277748196381871   0.624963173307916   1.0000000
B2   B   0.722318496837275   0.777908986325713   0.625053639936387   1.0000000
B2   B   0.555586431770535   0.277635270151571   0.625000678324480   1.0000000
B2   B   0.888977583759579   0.277804175850338   0.625115156117032   1.0000000
B2   B   0.222274329872842   0.777803831603086   0.124855640165335   1.0000000
B2   B   0.055585115538773   0.277809975063076   0.124975166597635   1.0000000
B2   B   0.388736767974627   0.277510647581466   0.125211275374017   1.0000000
B2   B   0.555575195646439   0.777893980819207   0.124892651307641   1.0000000
B2   B   0.889045902784546   0.777881613117295   0.124929103762881   1.0000000
B2   B   0.722318496837275   0.277742843844907   0.124946360063607   1.0000000
B2   B   0.055624038463396   0.944452947527770   0.625103495280664   1.0000000
B2   B   0.388898027026166   0.944394025534010   0.625175645307698   1.0000000
B2   B   0.222184252504657   0.444513466460750   0.625020207220683   1.0000000
B2   B   0.555714429900625   0.444523881616977   0.624502986226243   1.0000000
B2   B   0.722280492869095   0.944508501158381   0.625174222954430   1.0000000
B2   B   0.889045902784546   0.444497623000594   0.625070896237118   1.0000000
B2   B   0.055624038463396   0.444504424268954   0.124896504719330   1.0000000
B2   B   0.222247689633110   0.944394629361656   0.124896272082108   1.0000000
B2   B   0.555581692600399   0.944457512966873   0.124776044143803   1.0000000
B2   B   0.388736767974627   0.444559453726497   0.125211275374017   1.0000000
B2   B   0.888977583759579   0.944506741242584   0.124884843882968   1.0000000
B2   B   0.722421940157062   0.444496801620699   0.125027718483900   1.0000000
B2   B   0.222247689633110   0.611186393604790   0.625103727917886   1.0000000
B2   B   0.055585115538773   0.111108473809032   0.625024833402365   1.0000000
B2   B   0.555586431770535   0.611284494952284   0.625000678324480   1.0000000
B2   B   0.388847810645947   0.110943964865305   0.625027036148046   1.0000000
B2   B   0.889092209077907   0.611212771205621   0.625033122220806   1.0000000
B2   B   0.055677210921619   0.611181036028108   0.124879971623500   1.0000000
B2   B   0.722280492869095   0.111105325044043   0.625174222954430   1.0000000
B2   B   0.222184252504657   0.111004119377242   0.124979792779311   1.0000000
B2   B   0.388847810645947   0.611237179113985   0.124972963851961   1.0000000
B2   B   0.722421940157062   0.611258471869707   0.125027718483900   1.0000000
B2   B   0.555575195646439   0.111014548160574   0.124892651307641   1.0000000
B2   B   0.388847810645947   0.611237179113985   0.625027036148046   1.0000000
B2   B   0.888953486766455   0.111143410049899   0.124880565977721   1.0000000
B2   B   0.222274329872842   0.777803831603086   0.625144359834658   1.0000000
B2   B   0.055585115538773   0.277809975063076   0.625024833402365   1.0000000
B2   B   0.388736767974627   0.277510647581466   0.624788724625991   1.0000000
B2   B   0.555575195646439   0.777893980819207   0.625107348692353   1.0000000
B2   B   0.889045902784546   0.777881613117295   0.625070896237118   1.0000000
B2   B   0.722318496837275   0.277742843844907   0.625053639936387   1.0000000
B2   B   0.055677210921619   0.777829508226847   0.124879971623500   1.0000000
B2   B   0.388898027026166   0.777837334825491   0.124824354692296   1.0000000
B2   B   0.222163059430399   0.277748196381871   0.125036826692084   1.0000000
B2   B   0.722318496837275   0.777908986325713   0.124946360063607   1.0000000
B2   B   0.555586431770535   0.277635270151571   0.124999321675520   1.0000000
B2   B   0.888977583759579   0.277804175850338   0.124884843882968   1.0000000
B2   B   0.055624038463396   0.444504424268954   0.625103495280664   1.0000000
B2   B   0.222247689633110   0.944394629361656   0.625103727917886   1.0000000
B2   B   0.555581692600399   0.944457512966873   0.625223955856203   1.0000000
B2   B   0.388736767974627   0.444559453726497   0.624788724625991   1.0000000
B2   B   0.888977583759579   0.944506741242584   0.625115156117032   1.0000000
B2   B   0.055624038463396   0.944452947527770   0.124896504719330   1.0000000
B2   B   0.722421940157062   0.444496801620699   0.624972281516113   1.0000000
B2   B   0.388898027026166   0.944394025534010   0.124824354692296   1.0000000
B2   B   0.222184252504657   0.444513466460750   0.124979792779311   1.0000000
B2   B   0.222247689633110   0.611186393604790   0.124896272082108   1.0000000
B2   B   0.555714429900625   0.444523881616977   0.125497013773749   1.0000000
B2   B   0.722280492869095   0.944508501158381   0.124825777045569   1.0000000
B2   B   0.889045902784546   0.444497623000594   0.124929103762881   1.0000000
B2   B   0.055677210921619   0.611181036028108   0.625120028376500   1.0000000
B2   B   0.222184252504657   0.111004119377242   0.625020207220683   1.0000000
B2   B   0.722421940157062   0.611258471869707   0.624972281516113   1.0000000
B2   B   0.555575195646439   0.111014548160574   0.625107348692353   1.0000000
B2   B   0.888953486766455   0.111143410049899   0.625119434022294   1.0000000


