data_1
_audit_creation_method   'vasp2cif'
_cell_length_a    14.93631414619966
_cell_length_b    14.936314146199727
_cell_length_c    13.341276283792837
_cell_angle_alpha    90.0
_cell_angle_beta    90.0
_cell_angle_gamma    119.99999999999984

_symmetry_space_group_name_H-M    'P 1'
loop_
_atom_site_label
_atom_site_type_symbol
_atom_site_fract_x
_atom_site_fract_y
_atom_site_fract_z
_atom_site_occupancy
Sn2   Sn   0.494312231241514   0.413822782287421   0.375000000000000   1.0000000
N2   N   0.111136364901561   0.055558837957439   0.124928284474045   1.0000000
N2   N   0.611204609494536   0.555660444529417   0.123350681610908   1.0000000
N2   N   0.444479950740048   0.055549660370136   0.124971646029775   1.0000000
N2   N   0.944464268153917   0.555564080271201   0.125063143038728   1.0000000
N2   N   0.777822121419765   0.055577727376550   0.124960001104251   1.0000000
N2   N   0.111126702585598   0.722230017959463   0.625003683132911   1.0000000
N2   N   0.444479950740048   0.722263623703247   0.625028353970225   1.0000000
N2   N   0.277802071986491   0.222218028266657   0.625186070516616   1.0000000
N2   N   0.777821201795484   0.722263230484987   0.625097449298351   1.0000000
N2   N   0.611154734225381   0.222207680518649   0.625233420705812   1.0000000
N2   N   0.944486413022877   0.222242383611091   0.625030495087518   1.0000000
N2   N   0.277800257551879   0.722238955646484   0.124997948291475   1.0000000
N2   N   0.111153893897373   0.222243613615351   0.124929285275234   1.0000000
N2   N   0.444501113909001   0.222215888971743   0.124699478087970   1.0000000
N2   N   0.611154734225381   0.722280387040062   0.124766579294189   1.0000000
N2   N   0.944464268153917   0.722233521216051   0.125063143038728   1.0000000
N2   N   0.777819751792312   0.222228892900807   0.125005186577451   1.0000000
N2   N   0.111130149969635   0.888893542256616   0.625016778688968   1.0000000
N2   N   0.444475116563929   0.888904224948630   0.625002371545065   1.0000000
N2   N   0.277802071986491   0.388917377053163   0.625186070516616   1.0000000
N2   N   0.611204609494536   0.388877498298449   0.626649318389091   1.0000000
N2   N   0.777819751792312   0.888924192224832   0.624994813422549   1.0000000
N2   N   0.944476474862161   0.388901451949553   0.624972751426261   1.0000000
N2   N   0.111136364901561   0.388910860277451   0.124928284474045   1.0000000
N2   N   0.277800257551879   0.888894635238725   0.124997948291475   1.0000000
N2   N   0.611150461691058   0.888923578935096   0.124995952425082   1.0000000
N2   N   0.444521852314859   0.388927592824093   0.126134153582868   1.0000000
N2   N   0.944476474862161   0.888908356245937   0.125027248573738   1.0000000
N2   N   0.777821201795484   0.388891304643824   0.124902550701649   1.0000000
N2   N   0.277808235002425   0.555586178124664   0.625026149623007   1.0000000
N2   N   0.111136364901561   0.055558837957439   0.625071715525956   1.0000000
N2   N   0.611204609494536   0.555660444529417   0.626649318389091   1.0000000
N2   N   0.444479950740048   0.055549660370136   0.625028353970225   1.0000000
N2   N   0.944464268153917   0.555564080271201   0.624936856961272   1.0000000
N2   N   0.111130149969635   0.555569941046348   0.124983221311032   1.0000000
N2   N   0.777822121419765   0.055577727376550   0.625039998895749   1.0000000
N2   N   0.277808235002425   0.055555390211097   0.124973850376993   1.0000000
N2   N   0.444501113909001   0.555618558270593   0.124699478087970   1.0000000
N2   N   0.777805409712469   0.555569371522902   0.124744859221249   1.0000000
N2   N   0.611150461691058   0.055560216089290   0.124995952425082   1.0000000
N2   N   0.444501113909001   0.555618558270593   0.625300521912030   1.0000000
N2   N   0.944486413022877   0.055577362745121   0.124969504912483   1.0000000
N2   N   0.277800257551879   0.722238955646484   0.625002051708525   1.0000000
N2   N   0.111153893897373   0.222243613615351   0.625070714724766   1.0000000
N2   N   0.444501113909001   0.222215888971743   0.625300521912030   1.0000000
N2   N   0.611154734225381   0.722280387040062   0.625233420705812   1.0000000
N2   N   0.944464268153917   0.722233521216051   0.624936856961272   1.0000000
N2   N   0.777819751792312   0.222228892900807   0.624994813422549   1.0000000
N2   N   0.111126702585598   0.722230017959463   0.124996316867088   1.0000000
N2   N   0.444479950740048   0.722263623703247   0.124971646029775   1.0000000
N2   N   0.277802071986491   0.222218028266657   0.124813929483383   1.0000000
N2   N   0.777821201795484   0.722263230484987   0.124902550701649   1.0000000
N2   N   0.611154734225381   0.222207680518649   0.124766579294189   1.0000000
N2   N   0.944486413022877   0.222242383611091   0.124969504912483   1.0000000
N2   N   0.111136364901561   0.388910860277451   0.625071715525956   1.0000000
N2   N   0.277800257551879   0.888894635238725   0.625002051708525   1.0000000
N2   N   0.611150461691058   0.888923578935096   0.625004047574918   1.0000000
N2   N   0.444521852314859   0.388927592824093   0.623865846417132   1.0000000
N2   N   0.944476474862161   0.888908356245937   0.624972751426261   1.0000000
N2   N   0.111130149969635   0.888893542256616   0.124983221311032   1.0000000
N2   N   0.777821201795484   0.388891304643824   0.625097449298351   1.0000000
N2   N   0.444475116563929   0.888904224948630   0.124997628454936   1.0000000
N2   N   0.277802071986491   0.388917377053163   0.124813929483383   1.0000000
N2   N   0.277808235002425   0.555586178124664   0.124973850376993   1.0000000
N2   N   0.611204609494536   0.388877498298449   0.123350681610908   1.0000000
N2   N   0.777819751792312   0.888924192224832   0.125005186577451   1.0000000
N2   N   0.944476474862161   0.388901451949553   0.125027248573738   1.0000000
N2   N   0.111130149969635   0.555569941046348   0.625016778688968   1.0000000
N2   N   0.277808235002425   0.055555390211097   0.625026149623007   1.0000000
N2   N   0.777805409712469   0.555569371522902   0.625255140778750   1.0000000
N2   N   0.611150461691058   0.055560216089290   0.625004047574918   1.0000000
N2   N   0.944486413022877   0.055577362745121   0.625030495087518   1.0000000
N2   N   0.057021681960262   0.112018127538914   0.375000000000000   1.0000000
N2   N   0.554486142402542   0.621658123880982   0.375000000000000   1.0000000
N2   N   0.386112585515648   0.102816416725626   0.375000000000000   1.0000000
N2   N   0.885024687028101   0.609179010180722   0.375000000000000   1.0000000
N2   N   0.723048257739803   0.110414976103437   0.375000000000000   1.0000000
N2   N   0.055562232905969   0.777782244337597   0.875000000000000   1.0000000
N2   N   0.388898299629646   0.777782872557574   0.875000000000000   1.0000000
N2   N   0.222229282356654   0.277781307844995   0.875000000000000   1.0000000
N2   N   0.722230998100890   0.777782046471424   0.875000000000000   1.0000000
N2   N   0.555560782821536   0.277777494735254   0.875000000000000   1.0000000
N2   N   0.888898228915787   0.277783067513555   0.875000000000000   1.0000000
N2   N   0.218963420527936   0.776148376930636   0.375000000000000   1.0000000
N2   N   0.057021681960262   0.278336887754685   0.375000000000000   1.0000000
N2   N   0.386951756706588   0.265094816075421   0.375000000000000   1.0000000
N2   N   0.554742292926244   0.782347668201975   0.375000000000000   1.0000000
N2   N   0.888006539343581   0.778214837815997   0.375000000000000   1.0000000
N2   N   0.722813044847390   0.275185016535076   0.375000000000000   1.0000000
N2   N   0.055561384886888   0.944447813200696   0.875000000000000   1.0000000
N2   N   0.388898299629646   0.944448760405407   0.875000000000000   1.0000000
N2   N   0.222228319502746   0.444446332673965   0.875000000000000   1.0000000
N2   N   0.555554077751697   0.444443705542513   0.875000000000000   1.0000000
N2   N   0.722229744719875   0.944448307796128   0.875000000000000   1.0000000
N2   N   0.888898872533356   0.444448921600978   0.875000000000000   1.0000000
N2   N   0.054501257585820   0.444238854268986   0.375000000000000   1.0000000
N2   N   0.219211508672113   0.941199168091643   0.375000000000000   1.0000000
N2   N   0.554789258627723   0.944061295980526   0.375000000000000   1.0000000
N2   N   0.386951756706588   0.455190273964503   0.375000000000000   1.0000000
N2   N   0.889862497482222   0.945847697017710   0.375000000000000   1.0000000
N2   N   0.721127085612545   0.441269657308079   0.375000000000000   1.0000000
N2   N   0.222228831811506   0.611112823010555   0.875000000000000   1.0000000
N2   N   0.055561867309280   0.111113809899400   0.875000000000000   1.0000000
N2   N   0.555560782821536   0.611116621419617   0.875000000000000   1.0000000
N2   N   0.388897816930907   0.111116278563633   0.875000000000000   1.0000000
N2   N   0.888898455362088   0.611115894347714   0.875000000000000   1.0000000
N2   N   0.052366238267223   0.609881074031549   0.375000000000000   1.0000000
N2   N   0.722229744719875   0.111114770257081   0.875000000000000   1.0000000
N2   N   0.220925403829305   0.108425828677370   0.375000000000000   1.0000000
N2   N   0.386112585515648   0.616629502123365   0.375000000000000   1.0000000
N2   N   0.721127085612545   0.613190761637802   0.375000000000000   1.0000000
N2   N   0.554742292926244   0.105727958057607   0.375000000000000   1.0000000
N2   N   0.388897816930907   0.611114871700616   0.875000000000000   1.0000000
N2   N   0.890353677082352   0.111843505207847   0.375000000000000   1.0000000
N2   N   0.222229682892546   0.777781508112941   0.875000000000000   1.0000000
N2   N   0.055561867309280   0.277781390743216   0.875000000000000   1.0000000
N2   N   0.388900663619838   0.277787551878754   0.875000000000000   1.0000000
N2   N   0.555562770215572   0.777783139912616   0.875000000000000   1.0000000
N2   N   0.888898872533356   0.777783284265714   0.875000000000000   1.0000000
N2   N   0.722230998100890   0.277782284962799   0.875000000000000   1.0000000
N2   N   0.052366238267223   0.775818497569009   0.375000000000000   1.0000000
N2   N   0.386405969335795   0.778683248666620   0.375000000000000   1.0000000
N2   N   0.225155594910095   0.279244464121715   0.375000000000000   1.0000000
N2   N   0.722813044847390   0.780961361645651   0.375000000000000   1.0000000
N2   N   0.554486142402542   0.266161351854894   0.375000000000000   1.0000000
N2   N   0.889862497482222   0.277348133797848   0.375000000000000   1.0000000
N2   N   0.055561384886888   0.444446905019519   0.875000000000000   1.0000000
N2   N   0.222228831811506   0.944449342134286   0.875000000000000   1.0000000
N2   N   0.555562848040045   0.944448090686687   0.875000000000000   1.0000000
N2   N   0.388900663619838   0.444446445074420   0.875000000000000   1.0000000
N2   N   0.888898228915787   0.944448494735568   0.875000000000000   1.0000000
N2   N   0.054501257585820   0.943595736650162   0.375000000000000   1.0000000
N2   N   0.722232886194860   0.444449831954596   0.875000000000000   1.0000000
N2   N   0.386405969335795   0.941056054002511   0.375000000000000   1.0000000
N2   N   0.220925403829305   0.445832908485270   0.375000000000000   1.0000000
N2   N   0.219211508672113   0.611345673913805   0.375000000000000   1.0000000
N2   N   0.723048257739803   0.945966614969702   0.375000000000000   1.0000000
N2   N   0.888006539343581   0.443125034860918   0.375000000000000   1.0000000
N2   N   0.055562232905969   0.611113321901709   0.875000000000000   1.0000000
N2   N   0.222228319502746   0.111115320162117   0.875000000000000   1.0000000
N2   N   0.722232886194860   0.611116387573600   0.875000000000000   1.0000000
N2   N   0.555562770215572   0.111112963636292   0.875000000000000   1.0000000
N2   N   0.888898025433691   0.111115679383517   0.875000000000000   1.0000000
B2   B   0.110700681072353   0.054653963314804   0.375000000000000   1.0000000
B2   B   0.612713298685115   0.571516203372671   0.375000000000000   1.0000000
B2   B   0.443267399934999   0.050464785342317   0.375000000000000   1.0000000
B2   B   0.941510145565847   0.554148676913002   0.375000000000000   1.0000000
B2   B   0.779393526073419   0.056363429703378   0.375000000000000   1.0000000
B2   B   0.111121008980910   0.722227171157119   0.875000000000000   1.0000000
B2   B   0.444450560849919   0.722228428408068   0.875000000000000   1.0000000
B2   B   0.277767599831854   0.222217465421743   0.875000000000000   1.0000000
B2   B   0.777791720355665   0.722235699704745   0.875000000000000   1.0000000
B2   B   0.611120418389296   0.222217505496532   0.875000000000000   1.0000000
B2   B   0.944455961369820   0.222225397758370   0.875000000000000   1.0000000
B2   B   0.275205826668685   0.721980224056798   0.375000000000000   1.0000000
B2   B   0.113799890215940   0.223566611774634   0.375000000000000   1.0000000
B2   B   0.441780364416909   0.211526566226159   0.375000000000000   1.0000000
B2   B   0.611887386282507   0.730230253491182   0.375000000000000   1.0000000
B2   B   0.941510145565847   0.720694801986182   0.375000000000000   1.0000000
B2   B   0.779114664371329   0.221060606797734   0.375000000000000   1.0000000
B2   B   0.111119231287538   0.888898240026059   0.875000000000000   1.0000000
B2   B   0.444452711537629   0.888893022435480   0.875000000000000   1.0000000
B2   B   0.277767599831854   0.388883467743440   0.875000000000000   1.0000000
B2   B   0.611122708723415   0.388883122122735   0.875000000000000   1.0000000
B2   B   0.777791023415323   0.888901267123669   0.875000000000000   1.0000000
B2   B   0.944457031388324   0.388888882882667   0.875000000000000   1.0000000
B2   B   0.110700681072353   0.389380051090877   0.375000000000000   1.0000000
B2   B   0.275205826668685   0.886558935945216   0.375000000000000   1.0000000
B2   B   0.611813878820195   0.891583207540391   0.375000000000000   1.0000000
B2   B   0.944074942702167   0.889236886416339   0.375000000000000   1.0000000
B2   B   0.777751512194731   0.386442821677893   0.375000000000000   1.0000000
B2   B   0.277779564177492   0.555553919145607   0.875000000000000   1.0000000
B2   B   0.111115199670964   0.055561449461228   0.875000000000000   1.0000000
B2   B   0.611122708723415   0.555572919934011   0.875000000000000   1.0000000
B2   B   0.444450560849919   0.055555465775187   0.875000000000000   1.0000000
B2   B   0.944458083270632   0.555558948460281   0.875000000000000   1.0000000
B2   B   0.108531294456536   0.555081711813628   0.375000000000000   1.0000000
B2   B   0.777789461236463   0.055561397284899   0.875000000000000   1.0000000
B2   B   0.275309068322334   0.051638408992434   0.375000000000000   1.0000000
B2   B   0.441780364416909   0.563587131524086   0.375000000000000   1.0000000
B2   B   0.773686755989184   0.553510044661260   0.375000000000000   1.0000000
B2   B   0.611813878820195   0.053564004613131   0.375000000000000   1.0000000
B2   B   0.444448457012280   0.555566179091822   0.875000000000000   1.0000000
B2   B   0.946155231038755   0.056851105065468   0.375000000000000   1.0000000
B2   B   0.277784955279128   0.722224213588077   0.875000000000000   1.0000000
B2   B   0.111112000620352   0.222222666976840   0.875000000000000   1.0000000
B2   B   0.444448457012280   0.222215611253795   0.875000000000000   1.0000000
B2   B   0.611120418389296   0.722236246226092   0.875000000000000   1.0000000
B2   B   0.944458083270632   0.722232468143687   0.875000000000000   1.0000000
B2   B   0.777791023415323   0.222223089624982   0.875000000000000   1.0000000
B2   B   0.108021855344427   0.720677594338879   0.375000000000000   1.0000000
B2   B   0.443267399934999   0.726135947926017   0.375000000000000   1.0000000
B2   B   0.278432005382189   0.220015602578339   0.375000000000000   1.0000000
B2   B   0.777751512194731   0.724642023850168   0.375000000000000   1.0000000
B2   B   0.611887386282507   0.214990466124654   0.375000000000000   1.0000000
B2   B   0.946155231038755   0.222637459306623   0.375000000000000   1.0000000
B2   B   0.111115199670964   0.388887083543064   0.875000000000000   1.0000000
B2   B   0.277784955279128   0.888894075024378   0.875000000000000   1.0000000
B2   B   0.611121090530187   0.888897346317780   0.875000000000000   1.0000000
B2   B   0.444439780693179   0.388886557013254   0.875000000000000   1.0000000
B2   B   0.944457031388324   0.888901481838986   0.875000000000000   1.0000000
B2   B   0.108531294456536   0.886782915976237   0.375000000000000   1.0000000
B2   B   0.777791720355665   0.388889353984248   0.875000000000000   1.0000000
B2   B   0.443347313618325   0.888340323475826   0.375000000000000   1.0000000
B2   B   0.278432005382189   0.391749736137179   0.375000000000000   1.0000000
B2   B   0.275309068322334   0.557003992663237   0.375000000000000   1.0000000
B2   B   0.612713298685115   0.374530428645772   0.375000000000000   1.0000000
B2   B   0.779114664371329   0.891387390906924   0.375000000000000   1.0000000
B2   B   0.944074942702167   0.388171389619157   0.375000000000000   1.0000000
B2   B   0.111119231287538   0.555554324594808   0.875000000000000   1.0000000
B2   B   0.277779564177492   0.055558978365220   0.875000000000000   1.0000000
B2   B   0.777792386920183   0.555562860126760   0.875000000000000   1.0000000
B2   B   0.611121090530187   0.055557077545734   0.875000000000000   1.0000000
B2   B   0.944455961369820   0.055563896944785   0.875000000000000   1.0000000
B2   B   0.055604636772091   0.111139946328202   0.125000010208459   1.0000000
B2   B   0.555597217435958   0.611203925593003   0.124266644994516   1.0000000
B2   B   0.388891756667070   0.111060143557095   0.124957005977787   1.0000000
B2   B   0.888938400660283   0.611135866996813   0.124996183104415   1.0000000
B2   B   0.722261895987778   0.111113323690738   0.124996810380201   1.0000000
B2   B   0.055593689862324   0.777801711857207   0.624990799991067   1.0000000
B2   B   0.388906700250676   0.777800101546086   0.624998363300056   1.0000000
B2   B   0.222248272261795   0.277790802797565   0.624995371801480   1.0000000
B2   B   0.722265926436113   0.777842318716911   0.625116761611201   1.0000000
B2   B   0.555597217435958   0.277726625176289   0.625733355005484   1.0000000
B2   B   0.888938512807108   0.277782622533321   0.624988440222031   1.0000000
B2   B   0.222246861049172   0.777790097191254   0.124999008617909   1.0000000
B2   B   0.055604636772091   0.277798023777225   0.125000010208459   1.0000000
B2   B   0.388784106534993   0.277555481654694   0.125279140033697   1.0000000
B2   B   0.555580936567016   0.777829997817996   0.124959119824769   1.0000000
B2   B   0.888945278850722   0.777828783427539   0.125011956040222   1.0000000
B2   B   0.722265926436113   0.277756941052538   0.124883238388799   1.0000000
B2   B   0.055596222076486   0.944474430525458   0.624996238738657   1.0000000
B2   B   0.388906700250676   0.944439932037925   0.624998363300056   1.0000000
B2   B   0.222236623878743   0.444470172626948   0.625011412929208   1.0000000
B2   B   0.555838170068199   0.444585751700764   0.625877839096222   1.0000000
B2   B   0.722261895987778   0.944481905630375   0.625003189619799   1.0000000
B2   B   0.888945278850722   0.444449828756519   0.624988043959777   1.0000000
B2   B   0.055596222076486   0.444455124884357   0.125003761261343   1.0000000
B2   B   0.222246038869534   0.944453228897298   0.125006221218917   1.0000000
B2   B   0.555582474012541   0.944457903672934   0.125004196790351   1.0000000
B2   B   0.388784106534993   0.444561958213635   0.125279140033697   1.0000000
B2   B   0.888938512807108   0.944489223607123   0.125011559777969   1.0000000
B2   B   0.722310932760488   0.444456532312588   0.124257406690880   1.0000000
B2   B   0.222246038869534   0.611126143305572   0.624993778781083   1.0000000
B2   B   0.055604636772091   0.111139946328202   0.624999989791540   1.0000000
B2   B   0.555597217435958   0.611203925593003   0.625733355005484   1.0000000
B2   B   0.388891756667070   0.111060143557095   0.625042994022213   1.0000000
B2   B   0.888938400660283   0.611135866996813   0.625003816895584   1.0000000
B2   B   0.055593689862324   0.611125311338454   0.125009200008934   1.0000000
B2   B   0.722261895987778   0.111113323690738   0.625003189619799   1.0000000
B2   B   0.222236623878743   0.111099784585131   0.124988587070792   1.0000000
B2   B   0.388891756667070   0.611164946443319   0.124957005977787   1.0000000
B2   B   0.722310932760488   0.611187733781237   0.124257406690880   1.0000000
B2   B   0.555580936567016   0.111084272082355   0.124959119824769   1.0000000
B2   B   0.388891756667070   0.611164946443319   0.625042994022213   1.0000000
B2   B   0.888938643930049   0.111135988631696   0.124994320449032   1.0000000
B2   B   0.222246861049172   0.777790097191254   0.625000991382091   1.0000000
B2   B   0.055604636772091   0.277798023777225   0.624999989791540   1.0000000
B2   B   0.388784106534993   0.277555481654694   0.624720859966303   1.0000000
B2   B   0.555580936567016   0.777829997817996   0.625040880175231   1.0000000
B2   B   0.888945278850722   0.777828783427539   0.624988043959777   1.0000000
B2   B   0.722265926436113   0.277756941052538   0.625116761611201   1.0000000
B2   B   0.055593689862324   0.777801711857207   0.125009200008934   1.0000000
B2   B   0.388906700250676   0.777800101546086   0.125001636699943   1.0000000
B2   B   0.222248272261795   0.277790802797565   0.125004628198520   1.0000000
B2   B   0.722265926436113   0.777842318716911   0.124883238388799   1.0000000
B2   B   0.555597217435958   0.277726625176289   0.124266644994516   1.0000000
B2   B   0.888938512807108   0.277782622533321   0.125011559777969   1.0000000
B2   B   0.055596222076486   0.444455124884357   0.624996238738657   1.0000000
B2   B   0.222246038869534   0.944453228897298   0.624993778781083   1.0000000
B2   B   0.555582474012541   0.944457903672934   0.624995803209649   1.0000000
B2   B   0.388784106534993   0.444561958213635   0.624720859966303   1.0000000
B2   B   0.888938512807108   0.944489223607123   0.624988440222031   1.0000000
B2   B   0.055596222076486   0.944474430525458   0.125003761261343   1.0000000
B2   B   0.722310932760488   0.444456532312588   0.625742593309121   1.0000000
B2   B   0.388906700250676   0.944439932037925   0.125001636699943   1.0000000
B2   B   0.222236623878743   0.444470172626948   0.124988587070792   1.0000000
B2   B   0.222246038869534   0.611126143305572   0.125006221218917   1.0000000
B2   B   0.555838170068199   0.444585751700764   0.124122160903778   1.0000000
B2   B   0.722261895987778   0.944481905630375   0.124996810380201   1.0000000
B2   B   0.888945278850722   0.444449828756519   0.125011956040222   1.0000000
B2   B   0.055593689862324   0.611125311338454   0.624990799991067   1.0000000
B2   B   0.222236623878743   0.111099784585131   0.625011412929208   1.0000000
B2   B   0.722310932760488   0.611187733781237   0.625742593309121   1.0000000
B2   B   0.555580936567016   0.111084272082355   0.625040880175231   1.0000000
B2   B   0.888938643930049   0.111135988631696   0.625005679550968   1.0000000


