data_1
_audit_creation_method   'vasp2cif'
_cell_length_a    14.93631414619966
_cell_length_b    14.936314146199727
_cell_length_c    13.341276283792837
_cell_angle_alpha    90.0
_cell_angle_beta    90.0
_cell_angle_gamma    119.99999999999984

_symmetry_space_group_name_H-M    'P 1'
loop_
_atom_site_label
_atom_site_type_symbol
_atom_site_fract_x
_atom_site_fract_y
_atom_site_fract_z
_atom_site_occupancy
Ga2   Ga   0.475215555075217   0.404274444204356   0.375000000000000   1.0000000
N2   N   0.111472142886947   0.055721475501399   0.123962850290971   1.0000000
N2   N   0.611456776119292   0.555749439712289   0.125677238621551   1.0000000
N2   N   0.444783859620314   0.055693303742704   0.123944080506291   1.0000000
N2   N   0.944779215692203   0.555726788069104   0.124545996709788   1.0000000
N2   N   0.778130331661344   0.055731832497322   0.125086527702178   1.0000000
N2   N   0.111446899212276   0.722390116272636   0.625298802012023   1.0000000
N2   N   0.444783859620314   0.722423889211129   0.626055919493699   1.0000000
N2   N   0.278157819186238   0.222395613264561   0.625709874470033   1.0000000
N2   N   0.778115171759300   0.722387807718433   0.625445193780746   1.0000000
N2   N   0.611440276355102   0.222363714336528   0.625643921519698   1.0000000
N2   N   0.944812594754500   0.222412602028306   0.625233699331495   1.0000000
N2   N   0.278115402327196   0.722403226061531   0.124308980945990   1.0000000
N2   N   0.111500333260356   0.222416833296730   0.124082337500069   1.0000000
N2   N   0.444807791696408   0.222365311560376   0.124646832049829   1.0000000
N2   N   0.611440276355102   0.722409895352274   0.124356078480286   1.0000000
N2   N   0.944779215692203   0.722385760956414   0.124545996709788   1.0000000
N2   N   0.778121527276485   0.222400690951659   0.124763958138339   1.0000000
N2   N   0.111453684299234   0.889047640191900   0.625694942711217   1.0000000
N2   N   0.444782772557637   0.889058052945502   0.625813191019100   1.0000000
N2   N   0.278157819186238   0.389095539254907   0.625709874470033   1.0000000
N2   N   0.611456776119292   0.389040669740730   0.624322761378027   1.0000000
N2   N   0.778121527276485   0.889054169658211   0.625236041861545   1.0000000
N2   N   0.944793363377336   0.389072766539004   0.625565999856098   1.0000000
N2   N   0.111472142886947   0.389084000718738   0.123962850290971   1.0000000
N2   N   0.278115402327196   0.889045509599043   0.124308980945990   1.0000000
N2   N   0.611451213150502   0.889070706004762   0.124456007765871   1.0000000
N2   N   0.444890072080135   0.389111702706554   0.128471050296752   1.0000000
N2   N   0.944793363377336   0.889053930172051   0.124434000143874   1.0000000
N2   N   0.778115171759300   0.389060697374199   0.124554806219321   1.0000000
N2   N   0.278128389342542   0.555757031714091   0.626115005244087   1.0000000
N2   N   0.111472142886947   0.055721475501399   0.626037149709001   1.0000000
N2   N   0.611456776119292   0.555749439712289   0.624322761378074   1.0000000
N2   N   0.444783859620314   0.055693303742705   0.626055919493699   1.0000000
N2   N   0.944779215692203   0.555726788069104   0.625454003290194   1.0000000
N2   N   0.111453684299249   0.555739377440448   0.124305057288848   1.0000000
N2   N   0.778130331661344   0.055731832497322   0.624913472297541   1.0000000
N2   N   0.278128389342550   0.055704690961809   0.123884994756132   1.0000000
N2   N   0.444807791696408   0.555775813469261   0.124646832049832   1.0000000
N2   N   0.778104812219975   0.555719072776608   0.124877163000400   1.0000000
N2   N   0.611451213150502   0.055713840478541   0.124456007765871   1.0000000
N2   N   0.444807791696408   0.555775813469261   0.625353167950101   1.0000000
N2   N   0.944812594754500   0.055733326059601   0.124766300668306   1.0000000
N2   N   0.278115402327196   0.722403226061531   0.625691019054043   1.0000000
N2   N   0.111500333260356   0.222416833296730   0.625917662499778   1.0000000
N2   N   0.444807791696408   0.222365311560376   0.625353167950101   1.0000000
N2   N   0.611440276355102   0.722409895352274   0.625643921519706   1.0000000
N2   N   0.944779215692203   0.722385760956414   0.625454003290194   1.0000000
N2   N   0.778121527276485   0.222400690951661   0.625236041861545   1.0000000
N2   N   0.111446899212276   0.722390116272636   0.124701197987983   1.0000000
N2   N   0.444783859620314   0.722423889211138   0.123944080506292   1.0000000
N2   N   0.278157819186238   0.222395613264561   0.124290125529924   1.0000000
N2   N   0.778115171759300   0.722387807718433   0.124554806219321   1.0000000
N2   N   0.611440276355102   0.222363714336528   0.124356078480286   1.0000000
N2   N   0.944812594754500   0.222412602028306   0.124766300668306   1.0000000
N2   N   0.111472142886947   0.389084000718738   0.626037149709001   1.0000000
N2   N   0.278115402327196   0.889045509599043   0.625691019054043   1.0000000
N2   N   0.611451213150502   0.889070706004762   0.625543992233962   1.0000000
N2   N   0.444890072080135   0.389111702706554   0.621528949703279   1.0000000
N2   N   0.944793363377336   0.889053930172051   0.625565999856098   1.0000000
N2   N   0.111453684299235   0.889047640191900   0.124305057288846   1.0000000
N2   N   0.778115171759300   0.389060697374199   0.625445193780746   1.0000000
N2   N   0.444782772557637   0.889058052945502   0.124186808980689   1.0000000
N2   N   0.278157819186238   0.389095539254907   0.124290125529927   1.0000000
N2   N   0.278128389342542   0.555757031714091   0.123884994756132   1.0000000
N2   N   0.611456776119292   0.389040669740730   0.125677238621566   1.0000000
N2   N   0.778121527276485   0.889054169658211   0.124763958138339   1.0000000
N2   N   0.944793363377354   0.389072766539004   0.124434000143832   1.0000000
N2   N   0.111453684299249   0.555739377440448   0.625694942711217   1.0000000
N2   N   0.278128389342542   0.055704690961812   0.626115005244087   1.0000000
N2   N   0.778104812219977   0.555719072776608   0.625122836999590   1.0000000
N2   N   0.611451213150502   0.055713840478541   0.625543992233962   1.0000000
N2   N   0.944812594754500   0.055733326059601   0.625233699331495   1.0000000
N2   N   0.055339983487972   0.111059810217973   0.375000000000000   1.0000000
N2   N   0.554019040264130   0.612168055671537   0.375000000000000   1.0000000
N2   N   0.386798655193248   0.105538827788994   0.375000000000000   1.0000000
N2   N   0.886768853728738   0.610051093531182   0.375000000000000   1.0000000
N2   N   0.721862716613250   0.110650403600781   0.375000000000000   1.0000000
N2   N   0.055508885399377   0.777755577922185   0.875000000000000   1.0000000
N2   N   0.388854966818713   0.777758392470821   0.875000000000000   1.0000000
N2   N   0.222172374270458   0.277752853801804   0.875000000000000   1.0000000
N2   N   0.722185919461024   0.777760182831020   0.875000000000000   1.0000000
N2   N   0.555516084628326   0.277763173303770   0.875000000000000   1.0000000
N2   N   0.888850643729529   0.277758482824857   0.875000000000000   1.0000000
N2   N   0.220013002396531   0.776673167865062   0.375000000000000   1.0000000
N2   N   0.055339983487966   0.277613506603318   0.375000000000000   1.0000000
N2   N   0.386275122060359   0.267303249726489   0.375000000000000   1.0000000
N2   N   0.554744019479769   0.778560425001648   0.375000000000000   1.0000000
N2   N   0.887363388205826   0.777098938108686   0.375000000000000   1.0000000
N2   N   0.721526419207183   0.276823303196530   0.375000000000000   1.0000000
N2   N   0.055509862748821   0.944423206883066   0.875000000000000   1.0000000
N2   N   0.388854966818713   0.944429907681880   0.875000000000000   1.0000000
N2   N   0.222175111382618   0.444415089886762   0.875000000000000   1.0000000
N2   N   0.555501223172824   0.444417278253076   0.875000000000000   1.0000000
N2   N   0.722187967871244   0.944427652748331   0.875000000000000   1.0000000
N2   N   0.888847363526909   0.444422326524502   0.875000000000000   1.0000000
N2   N   0.053941538110800   0.443986273428432   0.375000000000000   1.0000000
N2   N   0.219921154024419   0.942228877015074   0.375000000000000   1.0000000
N2   N   0.554813298172259   0.944073315752800   0.375000000000000   1.0000000
N2   N   0.386275122060359   0.452305205667403   0.375000000000000   1.0000000
N2   N   0.888341126875699   0.944428965780799   0.375000000000000   1.0000000
N2   N   0.720602101214803   0.443804737039929   0.375000000000000   1.0000000
N2   N   0.222179964493976   0.611085330930361   0.875000000000000   1.0000000
N2   N   0.055507002237986   0.111087239179632   0.875000000000000   1.0000000
N2   N   0.555516084628326   0.611086244657711   0.875000000000000   1.0000000
N2   N   0.388852451590931   0.111102678548647   0.875000000000000   1.0000000
N2   N   0.888838843551354   0.611086088442294   0.875000000000000   1.0000000
N2   N   0.053318076931528   0.610200714945466   0.375000000000000   1.0000000
N2   N   0.722187967871244   0.111093648456289   0.875000000000000   1.0000000
N2   N   0.220380446657418   0.108814776880836   0.375000000000000   1.0000000
N2   N   0.386798655193248   0.614593160737682   0.375000000000000   1.0000000
N2   N   0.720602101214803   0.610130697508462   0.375000000000000   1.0000000
N2   N   0.554744019479769   0.109516927811339   0.375000000000000   1.0000000
N2   N   0.388852451590931   0.611083106375663   0.875000000000000   1.0000000
N2   N   0.888655999544202   0.110994666438834   0.375000000000000   1.0000000
N2   N   0.222181051282248   0.777757192307755   0.875000000000000   1.0000000
N2   N   0.055507002237987   0.277753096391713   0.875000000000000   1.0000000
N2   N   0.388848997053881   0.277769658945101   0.875000000000000   1.0000000
N2   N   0.555521447152712   0.777759257593990   0.875000000000000   1.0000000
N2   N   0.888847363526909   0.777758370335577   0.875000000000000   1.0000000
N2   N   0.722185919461026   0.277759069962944   0.875000000000000   1.0000000
N2   N   0.053318076931525   0.776450695319233   0.375000000000000   1.0000000
N2   N   0.387247115697553   0.778222385351343   0.375000000000000   1.0000000
N2   N   0.223078211206932   0.278205772270116   0.375000000000000   1.0000000
N2   N   0.721526419207197   0.778036449343761   0.375000000000000   1.0000000
N2   N   0.554019040264130   0.275184317926106   0.375000000000000   1.0000000
N2   N   0.888341126875699   0.277245494428934   0.375000000000000   1.0000000
N2   N   0.055509862748820   0.444419989199182   0.875000000000000   1.0000000
N2   N   0.222179964493976   0.944427966897139   0.875000000000000   1.0000000
N2   N   0.555522713553589   0.944428023443011   0.875000000000000   1.0000000
N2   N   0.388848997053881   0.444412671442179   0.875000000000000   1.0000000
N2   N   0.888850643729529   0.944425494237676   0.875000000000000   1.0000000
N2   N   0.053941538110800   0.943288598015709   0.375000000000000   1.0000000
N2   N   0.722173823903064   0.444419922008197   0.875000000000000   1.0000000
N2   N   0.387247115697553   0.942358063679608   0.375000000000000   1.0000000
N2   N   0.220380446657418   0.444899003109831   0.375000000000000   1.0000000
N2   N   0.219921154024471   0.611025610342947   0.375000000000000   1.0000000
N2   N   0.721862716613250   0.944545646345373   0.375000000000000   1.0000000
N2   N   0.887363388205826   0.443597783430831   0.375000000000000   1.0000000
N2   N   0.055508885399377   0.611086640810541   0.875000000000000   1.0000000
N2   N   0.222175111382618   0.111093354829278   0.875000000000000   1.0000000
N2   N   0.722173823903064   0.611087235227919   0.875000000000000   1.0000000
N2   N   0.555521447152712   0.111095522892221   0.875000000000000   1.0000000
N2   N   0.888849786683923   0.111091560008602   0.875000000000000   1.0000000
B2   B   0.109710486533067   0.054396599384408   0.375000000000000   1.0000000
B2   B   0.614079609123909   0.564534339414675   0.375000000000000   1.0000000
B2   B   0.443265215962167   0.052119284534684   0.375000000000000   1.0000000
B2   B   0.942952838485322   0.554634970900819   0.375000000000000   1.0000000
B2   B   0.777802721555902   0.055568027444732   0.375000000000000   1.0000000
B2   B   0.111083956301527   0.722208644817424   0.875000000000000   1.0000000
B2   B   0.444395522437984   0.722218580782739   0.875000000000000   1.0000000
B2   B   0.277663406426086   0.222162382129753   0.875000000000000   1.0000000
B2   B   0.777779625512263   0.722265102837976   0.875000000000000   1.0000000
B2   B   0.611086198582917   0.222161666178084   0.875000000000000   1.0000000
B2   B   0.944406823121004   0.222191409551981   0.875000000000000   1.0000000
B2   B   0.275895519715097   0.721883182109391   0.375000000000000   1.0000000
B2   B   0.111546302852722   0.222439818093031   0.375000000000000   1.0000000
B2   B   0.440738667527670   0.214166724125794   0.375000000000000   1.0000000
B2   B   0.611136503174093   0.724914821216528   0.375000000000000   1.0000000
B2   B   0.942952838485322   0.721651200917887   0.375000000000000   1.0000000
B2   B   0.777727035210167   0.221295254935756   0.375000000000000   1.0000000
B2   B   0.111071864856987   0.888878551056728   0.875000000000000   1.0000000
B2   B   0.444408117015860   0.888870725174629   0.875000000000000   1.0000000
B2   B   0.277663406426086   0.388834357629597   0.875000000000000   1.0000000
B2   B   0.611081860266944   0.388835046593098   0.875000000000000   1.0000000
B2   B   0.777768306180604   0.888920389028551   0.875000000000000   1.0000000
B2   B   0.944425940333180   0.388852515735738   0.875000000000000   1.0000000
B2   B   0.109710486533073   0.388647220482171   0.375000000000000   1.0000000
B2   B   0.275895519715097   0.887345670939041   0.375000000000000   1.0000000
B2   B   0.610919686545376   0.889566018860027   0.375000000000000   1.0000000
B2   B   0.943415905617445   0.888682652488211   0.375000000000000   1.0000000
B2   B   0.777466588557260   0.387260753155544   0.375000000000000   1.0000000
B2   B   0.277703995790344   0.555523191384914   0.875000000000000   1.0000000
B2   B   0.111044443411124   0.055531400317325   0.875000000000000   1.0000000
B2   B   0.611081860266944   0.555580147007035   0.875000000000000   1.0000000
B2   B   0.444395522437984   0.055510274988646   0.875000000000000   1.0000000
B2   B   0.944440212652788   0.555539394439372   0.875000000000000   1.0000000
B2   B   0.109099107259769   0.554933960598307   0.375000000000000   1.0000000
B2   B   0.777760106121066   0.055546719727206   0.875000000000000   1.0000000
B2   B   0.275352093110299   0.052683256372832   0.375000000000000   1.0000000
B2   B   0.440738667527670   0.559905276735354   0.375000000000000   1.0000000
B2   B   0.777424124627900   0.555378728980286   0.375000000000000   1.0000000
B2   B   0.610919686545376   0.054687001018766   0.375000000000000   1.0000000
B2   B   0.444366069187701   0.555543399801325   0.875000000000000   1.0000000
B2   B   0.944409962274133   0.055789371557195   0.375000000000000   1.0000000
B2   B   0.277731931756358   0.722201832455818   0.875000000000000   1.0000000
B2   B   0.111027237969675   0.222180285651438   0.875000000000000   1.0000000
B2   B   0.444366069187699   0.222156002720010   0.875000000000000   1.0000000
B2   B   0.611086198582917   0.722257865738151   0.875000000000000   1.0000000
B2   B   0.944440212652788   0.722234151546715   0.875000000000000   1.0000000
B2   B   0.777768306180604   0.222181250485278   0.875000000000000   1.0000000
B2   B   0.109112320684462   0.721222827008592   0.375000000000000   1.0000000
B2   B   0.443265215962167   0.724479264761133   0.375000000000000   1.0000000
B2   B   0.276633995443435   0.220028696951634   0.375000000000000   1.0000000
B2   B   0.777466588557260   0.723539168735128   0.375000000000000   1.0000000
B2   B   0.611136503174093   0.219555015290908   0.375000000000000   1.0000000
B2   B   0.944409962274142   0.221953924050221   0.375000000000000   1.0000000
B2   B   0.111044443411124   0.388846376427167   0.875000000000000   1.0000000
B2   B   0.277731931756358   0.888863432633614   0.875000000000000   1.0000000
B2   B   0.611089410302736   0.888897689116336   0.875000000000000   1.0000000
B2   B   0.444328312075775   0.388830822704654   0.875000000000000   1.0000000
B2   B   0.944425940333180   0.888906757931275   0.875000000000000   1.0000000
B2   B   0.109099107259769   0.887498479994522   0.375000000000000   1.0000000
B2   B   0.777779625512263   0.388847856007442   0.875000000000000   1.0000000
B2   B   0.443512358606168   0.888422845969713   0.375000000000000   1.0000000
B2   B   0.276633995443435   0.389938631824933   0.375000000000000   1.0000000
B2   B   0.275352093110299   0.556002170070727   0.375000000000000   1.0000000
B2   B   0.614079609123909   0.382878603043084   0.375000000000000   1.0000000
B2   B   0.777727035210167   0.889765113607673   0.375000000000000   1.0000000
B2   B   0.943415905617436   0.388066586462715   0.375000000000000   1.0000000
B2   B   0.111071864856989   0.555526647133782   0.875000000000000   1.0000000
B2   B   0.277703995790341   0.055514137738800   0.875000000000000   1.0000000
B2   B   0.777779522697365   0.555556428015231   0.875000000000000   1.0000000
B2   B   0.611089410302736   0.055525054519506   0.875000000000000   1.0000000
B2   B   0.944406823121004   0.055548746902529   0.875000000000000   1.0000000
B2   B   0.055928772616748   0.111295481448415   0.124133045411176   1.0000000
B2   B   0.555803500853156   0.611467844104649   0.124258105371217   1.0000000
B2   B   0.389117941199778   0.111057546598793   0.123793785467646   1.0000000
B2   B   0.889432947246787   0.611383140289970   0.124237004734573   1.0000000
B2   B   0.722573436294997   0.111240012107549   0.124605596708636   1.0000000
B2   B   0.055994619637766   0.777999399717458   0.625661511292727   1.0000000
B2   B   0.389175011099639   0.777983820951076   0.626070227295707   1.0000000
B2   B   0.222508589486384   0.277920961409956   0.625897350135999   1.0000000
B2   B   0.722611897302708   0.778090616704129   0.625839948387458   1.0000000
B2   B   0.555803500853156   0.277668990081710   0.625741894628862   1.0000000
B2   B   0.889298167043545   0.277944916324512   0.625510270105836   1.0000000
B2   B   0.222572598749150   0.777952966041107   0.124324213927960   1.0000000
B2   B   0.055928772616749   0.277966624501660   0.124133045411176   1.0000000
B2   B   0.388980394986004   0.277582456423151   0.125526428958552   1.0000000
B2   B   0.555837995060922   0.778060525921945   0.123919319761082   1.0000000
B2   B   0.889369635132374   0.778067747554984   0.124174485674693   1.0000000
B2   B   0.722611897302708   0.277854613931901   0.124160051612422   1.0000000
B2   B   0.055954034994228   0.944643172010222   0.625961934681974   1.0000000
B2   B   0.389175011099639   0.944524523482028   0.626070227295707   1.0000000
B2   B   0.222509398414935   0.444654960947781   0.626206083550492   1.0000000
B2   B   0.556024266332635   0.444678799832982   0.624716261853936   1.0000000
B2   B   0.722573436294997   0.944666757520878   0.625394403291530   1.0000000
B2   B   0.889369635132374   0.444635220911041   0.625825514325211   1.0000000
B2   B   0.055954034994228   0.444644196317424   0.124038065317909   1.0000000
B2   B   0.222552253442982   0.944558735996082   0.123975737883955   1.0000000
B2   B   0.555858756627482   0.944596044980445   0.124159121171850   1.0000000
B2   B   0.388980394986004   0.444731271896057   0.125526428958551   1.0000000
B2   B   0.889298167043545   0.944686584052523   0.124489729894119   1.0000000
B2   B   0.722771051479924   0.444642372384995   0.124313776956868   1.0000000
B2   B   0.222552253442982   0.611326850779677   0.626024262116200   1.0000000
B2   B   0.055928772616749   0.111295481448417   0.625866954588778   1.0000000
B2   B   0.555803500853156   0.611467844104649   0.625741894628862   1.0000000
B2   B   0.389117941199778   0.111057546598793   0.626206214532391   1.0000000
B2   B   0.889432947246787   0.611383140289970   0.625762995265579   1.0000000
B2   B   0.055994619637765   0.611328553253816   0.124338488707414   1.0000000
B2   B   0.722573436294997   0.111240012107549   0.625394403291530   1.0000000
B2   B   0.222509398414935   0.111187770800611   0.123793916449532   1.0000000
B2   B   0.389117941199778   0.611393727934582   0.123793785467646   1.0000000
B2   B   0.722771051479924   0.611462012428024   0.124313776956868   1.0000000
B2   B   0.555837995060922   0.111110802472510   0.123919319761082   1.0000000
B2   B   0.389117941199778   0.611393727934582   0.626206214532431   1.0000000
B2   B   0.889276950025490   0.111305141679371   0.124793269298985   1.0000000
B2   B   0.222572598749150   0.777952966041107   0.625675786071620   1.0000000
B2   B   0.055928772616748   0.277966624501660   0.625866954588778   1.0000000
B2   B   0.388980394986004   0.277582456423151   0.624473571041177   1.0000000
B2   B   0.555837995060922   0.778060525921945   0.626080680239037   1.0000000
B2   B   0.889369635132374   0.778067747554984   0.625825514325211   1.0000000
B2   B   0.722611897302708   0.277854613931901   0.625839948387458   1.0000000
B2   B   0.055994619637766   0.777999399717458   0.124338488707414   1.0000000
B2   B   0.389175011099639   0.777983820951076   0.123929772704286   1.0000000
B2   B   0.222508589486384   0.277920961409956   0.124102649864094   1.0000000
B2   B   0.722611897302708   0.778090616704129   0.124160051612422   1.0000000
B2   B   0.555803500853156   0.277668990081710   0.124258105371214   1.0000000
B2   B   0.889298167043545   0.277944916324512   0.124489729894116   1.0000000
B2   B   0.055954034994228   0.444644196317424   0.625961934681974   1.0000000
B2   B   0.222552253442982   0.944558735996082   0.626024262116200   1.0000000
B2   B   0.555858756627482   0.944596044980445   0.625840878828271   1.0000000
B2   B   0.388980394986004   0.444731271896057   0.624473571041177   1.0000000
B2   B   0.889298167043545   0.944686584052523   0.625510270105836   1.0000000
B2   B   0.055954034994226   0.944643172010222   0.124038065317909   1.0000000
B2   B   0.722771051479924   0.444642372384995   0.625686223043207   1.0000000
B2   B   0.389175011099639   0.944524523482028   0.123929772704286   1.0000000
B2   B   0.222509398414935   0.444654960947781   0.123793916449533   1.0000000
B2   B   0.222552253442982   0.611326850779677   0.123975737883955   1.0000000
B2   B   0.556024266332635   0.444678799832982   0.125283738146158   1.0000000
B2   B   0.722573436294997   0.944666757520878   0.124605596708636   1.0000000
B2   B   0.889369635132374   0.444635220911041   0.124174485674693   1.0000000
B2   B   0.055994619637765   0.611328553253816   0.625661511292727   1.0000000
B2   B   0.222509398414935   0.111187770800611   0.626206083550492   1.0000000
B2   B   0.722771051479924   0.611462012428024   0.625686223043207   1.0000000
B2   B   0.555837995060922   0.111110802472510   0.626080680239037   1.0000000
B2   B   0.889276950025490   0.111305141679371   0.625206730700764   1.0000000


