data_1
_audit_creation_method   'vasp2cif'
_cell_length_a    17.52789999999977
_cell_length_b    17.52789999999977
_cell_length_c    15.0
_cell_angle_alpha    90.0
_cell_angle_beta    90.0
_cell_angle_gamma    119.99999999999916

_symmetry_space_group_name_H-M    'P 1'
loop_
_atom_site_label
_atom_site_type_symbol
_atom_site_fract_x
_atom_site_fract_y
_atom_site_fract_z
_atom_site_occupancy
B2   B   0.906324913085869   0.953872520526162   0.110967693454796   1.0000000
B2   B   0.904414575009876   0.095587446186125   0.110996957426877   1.0000000
B2   B   0.903884393787780   0.238093203949579   0.111010033560022   1.0000000
B2   B   0.904499792803307   0.381001399185007   0.110944899813224   1.0000000
B2   B   0.906693811709348   0.524292695541491   0.110980498134093   1.0000000
B2   B   0.907955704073494   0.667991716339990   0.111014182838229   1.0000000
B2   B   0.908770245752895   0.812301410251498   0.110994181267746   1.0000000
B2   B   0.048195144468623   0.951806876727377   0.110964389727798   1.0000000
B2   B   0.046129500669855   0.093677108110120   0.110967693454796   1.0000000
B2   B   0.045353123195781   0.236725521102832   0.110946199047469   1.0000000
B2   B   0.045911414949364   0.380282880597600   0.110959754903346   1.0000000
B2   B   0.047489933559680   0.523721373906218   0.110970652993057   1.0000000
B2   B   0.049126789467570   0.666740388647984   0.111018609731542   1.0000000
B2   B   0.049254422634384   0.809531882270375   0.111006167135426   1.0000000
B2   B   0.190470138925622   0.950747598561623   0.111006167135426   1.0000000
B2   B   0.187700610944500   0.091231775443118   0.110994181267746   1.0000000
B2   B   0.185537929269686   0.233307610047272   0.110934392743908   1.0000000
B2   B   0.186287734820940   0.378325817346234   0.110958467611108   1.0000000
B2   B   0.188051213482065   0.523162161154295   0.111019147609001   1.0000000
B2   B   0.191122895591349   0.666295268541693   0.111019614021659   1.0000000
B2   B   0.191230458684336   0.808771562511666   0.110965431548366   1.0000000
B2   B   0.333261632549006   0.950875231728448   0.111018609731542   1.0000000
B2   B   0.332010304857000   0.092046317122489   0.111014182838229   1.0000000
B2   B   0.326207768927735   0.229350463234588   0.111008278257076   1.0000000
B2   B   0.324505649680085   0.371505217706659   0.111165494866872   1.0000000
B2   B   0.327030108627743   0.521654921201508   0.111177060404215   1.0000000
B2   B   0.333857422724675   0.666144598472316   0.111072277130840   1.0000000
B2   B   0.333706752655307   0.808879125604650   0.111019614021659   1.0000000
B2   B   0.476280647290772   0.952512087636330   0.110970652993057   1.0000000
B2   B   0.475709325655508   0.093308209486654   0.110980498134093   1.0000000
B2   B   0.474827890252248   0.233102767668280   0.110974855751970   1.0000000
B2   B   0.462203942287012   0.359593260155430   0.111688780585133   1.0000000
B2   B   0.478347099995502   0.672971912569266   0.111177060404215   1.0000000
B2   B   0.476839860042704   0.811950807713965   0.111019147609001   1.0000000
B2   B   0.619719140598400   0.954090606246643   0.110959754903345   1.0000000
B2   B   0.619000622010995   0.095502228392681   0.110944899813224   1.0000000
B2   B   0.618858825039642   0.237403211139381   0.110910868499595   1.0000000
B2   B   0.619698702710791   0.380303318485208   0.111107049391582   1.0000000
B2   B   0.640408761040571   0.537798078909976   0.111688780585135   1.0000000
B2   B   0.628496803489360   0.675496371516900   0.111165494866872   1.0000000
B2   B   0.621676203849771   0.813714286375075   0.110958467611108   1.0000000
B2   B   0.763276500093152   0.954648898000225   0.110946199047469   1.0000000
B2   B   0.761908817246413   0.096117627408223   0.111010033560022   1.0000000
B2   B   0.761695017829177   0.238307003366813   0.110998287499629   1.0000000
B2   B   0.762598810056618   0.381143196156334   0.110910868499595   1.0000000
B2   B   0.766899253527732   0.525174130944756   0.110974855751969   1.0000000
B2   B   0.770651557961408   0.673794252269258   0.111008278257076   1.0000000
B2   B   0.766694411148726   0.814464091926323   0.110934392743908   1.0000000
N2   N   0.954163665307690   0.906335346843696   0.110959701596931   1.0000000
N2   N   0.952003310652985   0.047998091265014   0.110969744529241   1.0000000
N2   N   0.950948103862148   0.190205582041887   0.110977490634939   1.0000000
N2   N   0.951247024485358   0.333005037878317   0.110950397513215   1.0000000
N2   N   0.952844983650995   0.476062371006000   0.110942484655568   1.0000000
N2   N   0.954391787856971   0.619453996340795   0.111009076520996   1.0000000
N2   N   0.954804389543057   0.763030774309735   0.111006256848031   1.0000000
N2   N   0.095823371337818   0.904178030580191   0.110965752645559   1.0000000
N2   N   0.093666055074321   0.045837736610322   0.110959701596931   1.0000000
N2   N   0.091736150753659   0.187938604307534   0.110924287204317   1.0000000
N2   N   0.092085199984451   0.331620902880512   0.110927915119339   1.0000000
N2   N   0.093603007181402   0.475452499514888   0.110954118249026   1.0000000
N2   N   0.096056968065155   0.618802705316567   0.110987630582778   1.0000000
N2   N   0.096448098298464   0.761646751975200   0.110964713602771   1.0000000
N2   N   0.238354649942798   0.903553303619527   0.110964713602771   1.0000000
N2   N   0.236970627608274   0.045197012374965   0.111006256848031   1.0000000
N2   N   0.232631714933385   0.184888767337864   0.110931036508432   1.0000000
N2   N   0.230726888210787   0.327556865734685   0.110924926652385   1.0000000
N2   N   0.232865004669345   0.474017921297237   0.111003517170118   1.0000000
N2   N   0.238280785509346   0.618486337321991   0.111029753505958   1.0000000
N2   N   0.238717027915782   0.761284374002243   0.110979425964785   1.0000000
N2   N   0.381198696601423   0.903944433852820   0.110987630582778   1.0000000
N2   N   0.380547405577222   0.045609614061048   0.111009076520996   1.0000000
N2   N   0.378742040543400   0.186342532075354   0.110972838046766   1.0000000
N2   N   0.370105821539187   0.322194637824770   0.111175865395790   1.0000000
N2   N   0.360422324678508   0.463557514274195   0.111442267716098   1.0000000
N2   N   0.381658646495291   0.618342755422698   0.111076273731759   1.0000000
N2   N   0.381515064595999   0.761720616408651   0.111029753505958   1.0000000
N2   N   0.524548902402098   0.906398394736598   0.110954118249026   1.0000000
N2   N   0.523939030910996   0.047156418267013   0.110942484655568   1.0000000
N2   N   0.523609023921521   0.187862728319564   0.110896594064122   1.0000000
N2   N   0.523037323778360   0.327403283930027   0.111168291797248   1.0000000
N2   N   0.536443887642808   0.639579077239478   0.111442267716098   1.0000000
N2   N   0.525983480619781   0.767136397248653   0.111003517170118   1.0000000
N2   N   0.668380499036488   0.907916201933551   0.110927915119339   1.0000000
N2   N   0.666996364038680   0.048754377432661   0.110950397513215   1.0000000
N2   N   0.666664062065669   0.190549243014415   0.110940889849446   1.0000000
N2   N   0.666977427716483   0.333023974200506   0.110887219735869   1.0000000
N2   N   0.672598117986978   0.476964078138641   0.111168291797248   1.0000000
N2   N   0.677806764092238   0.629895580378802   0.111175865395790   1.0000000
N2   N   0.672444536182317   0.769274513707215   0.110924926652385   1.0000000
N2   N   0.812062797610451   0.908265251164341   0.110924287204317   1.0000000
N2   N   0.809795819876130   0.049053298055843   0.110977490634939   1.0000000
N2   N   0.809096395312610   0.190905006605380   0.111012640520294   1.0000000
N2   N   0.809452158903586   0.333337339851325   0.110940889849446   1.0000000
N2   N   0.812138673598428   0.476392377995488   0.110896594064122   1.0000000
N2   N   0.813658869842648   0.621259361374610   0.110972838046766   1.0000000
N2   N   0.815112634580155   0.767369686984611   0.110931036508432   1.0000000
O2   O   0.464002873604581   0.535999147592429   0.111090196642263   1.0000000
Se2   Se   0.521998828660464   0.478002573256543   0.111354580577588   1.0000000


