data_1
_audit_creation_method   'vasp2cif'
_cell_length_a    17.52789999999977
_cell_length_b    17.52789999999977
_cell_length_c    15.0
_cell_angle_alpha    90.0
_cell_angle_beta    90.0
_cell_angle_gamma    119.99999999999916

_symmetry_space_group_name_H-M    'P 1'
loop_
_atom_site_label
_atom_site_type_symbol
_atom_site_fract_x
_atom_site_fract_y
_atom_site_fract_z
_atom_site_occupancy
As2   As   0.395550380380997   0.481957436712142   0.110757029989548   1.0000000
B2   B   0.907580863567712   0.952784211313385   0.110665703523687   1.0000000
B2   B   0.908423559635916   0.096074650485700   0.110731182549081   1.0000000
B2   B   0.908473276918179   0.238737159731261   0.110682073367953   1.0000000
B2   B   0.907651840997055   0.381151875993332   0.110651140816629   1.0000000
B2   B   0.905114079416623   0.523332017612336   0.110747592692439   1.0000000
B2   B   0.903926989577095   0.665350672311869   0.110800845386339   1.0000000
B2   B   0.904549214455727   0.807875695326773   0.110661624666060   1.0000000
B2   B   0.048760157099630   0.951367310329476   0.110628024218563   1.0000000
B2   B   0.049999962816978   0.094461261127898   0.110715563457867   1.0000000
B2   B   0.051311753304991   0.238548790388950   0.110782411793015   1.0000000
B2   B   0.050723059346366   0.381657319234172   0.110658262720779   1.0000000
B2   B   0.048074520931647   0.524387134755935   0.110639466112632   1.0000000
B2   B   0.047480540610473   0.666538294485374   0.110720578489557   1.0000000
B2   B   0.047623506026371   0.808641082977947   0.110686343651577   1.0000000
B2   B   0.191324727665632   0.951314817986670   0.110667849062453   1.0000000
B2   B   0.192763564176150   0.093878402268815   0.110711075490751   1.0000000
B2   B   0.192106333446540   0.235015145288266   0.110811696731502   1.0000000
B2   B   0.194631808391223   0.381864807368378   0.110803293806363   1.0000000
B2   B   0.189954823073045   0.525783728868486   0.110693036574867   1.0000000
B2   B   0.190600065568786   0.668143477993992   0.110743542378044   1.0000000
B2   B   0.190808438707511   0.809688288416551   0.110698250296046   1.0000000
B2   B   0.334720044991421   0.952162517065772   0.110734919967978   1.0000000
B2   B   0.335276578474808   0.092320296600911   0.110741841107756   1.0000000
B2   B   0.338234759560646   0.233422860884284   0.110839095607616   1.0000000
B2   B   0.333472317934277   0.362965730597227   0.111038957669923   1.0000000
B2   B   0.330468342404731   0.536474323772519   0.110739511464518   1.0000000
B2   B   0.334080809338441   0.673459383469225   0.110788074955316   1.0000000
B2   B   0.334427638764110   0.812281239740474   0.110842020220987   1.0000000
B2   B   0.478691074930395   0.953771024711154   0.110799832563903   1.0000000
B2   B   0.478942215555935   0.094242469638173   0.110815896697413   1.0000000
B2   B   0.479560969345296   0.234975582480793   0.110792989301274   1.0000000
B2   B   0.490106093110073   0.383812471250683   0.110850487183538   1.0000000
B2   B   0.478887364699284   0.674185931170109   0.110702849161670   1.0000000
B2   B   0.478884238978173   0.813694870221259   0.110774457922254   1.0000000
B2   B   0.622574536066916   0.954407517217762   0.110708693437145   1.0000000
B2   B   0.622509925961538   0.095619004190916   0.110709341054837   1.0000000
B2   B   0.622566951662760   0.236928333845051   0.110772281897179   1.0000000
B2   B   0.622824374435759   0.378238466856173   0.110780738626312   1.0000000
B2   B   0.605769872624165   0.509294626071187   0.110820183509665   1.0000000
B2   B   0.626300822018961   0.672522905039064   0.110666660507056   1.0000000
B2   B   0.623073833106782   0.813070665128498   0.110665421367067   1.0000000
B2   B   0.765710574962129   0.954051162189896   0.110689496554942   1.0000000
B2   B   0.765725246234768   0.096271269764092   0.110656446182726   1.0000000
B2   B   0.765566398299505   0.238260487167643   0.110665792839302   1.0000000
B2   B   0.764978199816228   0.380363667279375   0.110750764916743   1.0000000
B2   B   0.760941673045698   0.521963394345329   0.110859721035499   1.0000000
B2   B   0.758708963034705   0.662569263987363   0.110722797290184   1.0000000
B2   B   0.765797878086780   0.811445292556962   0.110645299628065   1.0000000
N2   N   0.953511263519995   0.903753074297531   0.110611010568732   1.0000000
N2   N   0.955256011322157   0.047801678267573   0.110694039430847   1.0000000
N2   N   0.956208832536544   0.191278545906328   0.110722532121518   1.0000000
N2   N   0.955776941776683   0.333845704475607   0.110615469384750   1.0000000
N2   N   0.953470031742598   0.476256817977252   0.110638905101860   1.0000000
N2   N   0.952430085517303   0.618530186496882   0.110763751746302   1.0000000
N2   N   0.952410095872182   0.760755159586165   0.110702094198003   1.0000000
N2   N   0.096039534723017   0.903759589081178   0.110622673999107   1.0000000
N2   N   0.097239966896422   0.046649794366676   0.110642516826164   1.0000000
N2   N   0.097485446010736   0.189343112690111   0.110750041490325   1.0000000
N2   N   0.099178178028058   0.334200323969782   0.110724046623251   1.0000000
N2   N   0.095740358987594   0.477002094540885   0.110602840623226   1.0000000
N2   N   0.095531773257213   0.619579335509790   0.110663046878227   1.0000000
N2   N   0.095543225343438   0.761641067704500   0.110672460931754   1.0000000
N2   N   0.239235225553353   0.904454059925088   0.110651653796164   1.0000000
N2   N   0.239815814108757   0.045965182020450   0.110669992123702   1.0000000
N2   N   0.241461801815196   0.188721202508732   0.110771681168374   1.0000000
N2   N   0.239688082465696   0.329726980412207   0.110883358523169   1.0000000
N2   N   0.237353697328452   0.478538557737375   0.110707530559814   1.0000000
N2   N   0.238611113636224   0.621595991125297   0.110726722873805   1.0000000
N2   N   0.238946187232905   0.763185602406198   0.110755122609465   1.0000000
N2   N   0.383155692134071   0.906363475327976   0.110780892311517   1.0000000
N2   N   0.383416735304410   0.046212117884199   0.110742888098964   1.0000000
N2   N   0.384249227211028   0.185931088373151   0.110757489868633   1.0000000
N2   N   0.389317682948144   0.327063260883247   0.110953959852147   1.0000000
N2   N   0.383013603528896   0.629242560540827   0.110716401401387   1.0000000
N2   N   0.383173704492233   0.767129496592293   0.110824392811434   1.0000000
N2   N   0.527221691653072   0.907750753064464   0.110746187989160   1.0000000
N2   N   0.527182276238257   0.047980209341554   0.110765615443942   1.0000000
N2   N   0.527430168031805   0.188375522023577   0.110795968120230   1.0000000
N2   N   0.528372317766885   0.328861491087778   0.110763146022812   1.0000000
N2   N   0.507572255693357   0.547459235323757   0.111332220138752   1.0000000
N2   N   0.532244444051884   0.633162230691518   0.110753872912363   1.0000000
N2   N   0.527697935624556   0.767933890244954   0.110648938655521   1.0000000
N2   N   0.670648083442802   0.907560540859049   0.110673024540368   1.0000000
N2   N   0.670587736956968   0.048916079537491   0.110645190022959   1.0000000
N2   N   0.670555682281143   0.190159289080308   0.110687972934164   1.0000000
N2   N   0.670602872863241   0.331545736967200   0.110740762176392   1.0000000
N2   N   0.666076162265014   0.473161917492848   0.110828929211508   1.0000000
N2   N   0.662691685009665   0.613786653666864   0.110688541892831   1.0000000
N2   N   0.671858432204614   0.766600307303778   0.110607453847061   1.0000000
N2   N   0.813084236878378   0.906346326101136   0.110652205796815   1.0000000
N2   N   0.813414817961589   0.048957685404301   0.110670476482654   1.0000000
N2   N   0.813471975489355   0.191130012649239   0.110626219456312   1.0000000
N2   N   0.812985726208267   0.333193012610663   0.110661807544541   1.0000000
N2   N   0.810431261837827   0.475379334998808   0.110796216770135   1.0000000
N2   N   0.808772983752200   0.617303133531978   0.110816319336186   1.0000000
N2   N   0.809252758847758   0.759984238301660   0.110648384543998   1.0000000


