data_1
_audit_creation_method   'vasp2cif'
_cell_length_a    14.93631414619966
_cell_length_b    14.936314146199727
_cell_length_c    13.341276283792837
_cell_angle_alpha    90.0
_cell_angle_beta    90.0
_cell_angle_gamma    119.99999999999984

_symmetry_space_group_name_H-M    'P 1'
loop_
_atom_site_label
_atom_site_type_symbol
_atom_site_fract_x
_atom_site_fract_y
_atom_site_fract_z
_atom_site_occupancy
O2   O   0.438076378858133   0.384843766258509   0.375000000000000   1.0000000
N2   N   0.617302757037950   0.452425283743386   0.375000000000000   1.0000000
N2   N   0.111078085577802   0.055608612029699   0.124724107273358   1.0000000
N2   N   0.611158296059547   0.555646009715639   0.127663766600621   1.0000000
N2   N   0.444454415487745   0.055595603514333   0.126150714756970   1.0000000
N2   N   0.944435328954384   0.555587572970865   0.125970857738379   1.0000000
N2   N   0.777800298218410   0.055565536724289   0.124709751593294   1.0000000
N2   N   0.111107129201119   0.722265315075418   0.625106825044353   1.0000000
N2   N   0.444485221092770   0.722228491287005   0.625186406543491   1.0000000
N2   N   0.277736998983266   0.222258435937332   0.623709137993652   1.0000000
N2   N   0.777829335523339   0.722319661796037   0.624253288639381   1.0000000
N2   N   0.611164571224083   0.222195468590011   0.622044973132557   1.0000000
N2   N   0.944428616782521   0.222229147277425   0.625272630027301   1.0000000
N2   N   0.277794384204135   0.722246323880044   0.124646594588431   1.0000000
N2   N   0.111055251907752   0.222227687743848   0.124694724533373   1.0000000
N2   N   0.444394289562089   0.222232027850335   0.128288623527373   1.0000000
N2   N   0.611181889976693   0.722270667818413   0.125424095301178   1.0000000
N2   N   0.944445402885538   0.722286400029522   0.125459028491051   1.0000000
N2   N   0.777801324901904   0.222203694062043   0.125909738915390   1.0000000
N2   N   0.111099085086102   0.888952142328343   0.625285363672156   1.0000000
N2   N   0.444470717614726   0.888919432839527   0.625172594085947   1.0000000
N2   N   0.277776547307028   0.388868504804456   0.624173408842007   1.0000000
N2   N   0.611207490738090   0.388869163151480   0.621012112091526   1.0000000
N2   N   0.777827152736448   0.888959355944972   0.625329386838618   1.0000000
N2   N   0.944432332569540   0.388895260722874   0.624482725345204   1.0000000
N2   N   0.111100528136664   0.388894154668653   0.124682821621548   1.0000000
N2   N   0.277785107918003   0.888942824775476   0.124856543649609   1.0000000
N2   N   0.611148953264093   0.888908182096012   0.124652285790672   1.0000000
N2   N   0.444491195873648   0.388924461092600   0.129409307433576   1.0000000
N2   N   0.944461030362183   0.888973026160039   0.124699343594184   1.0000000
N2   N   0.777796807609216   0.388884873837689   0.127634134703755   1.0000000
N2   N   0.277795284438247   0.555551900314409   0.625127967697652   1.0000000
N2   N   0.111078085577802   0.055608612029699   0.625275892726653   1.0000000
N2   N   0.611158296059547   0.555646009715639   0.622336233399379   1.0000000
N2   N   0.444454415487745   0.055595603514333   0.623849285243039   1.0000000
N2   N   0.944435328954384   0.555587572970865   0.624029142261626   1.0000000
N2   N   0.111106002364090   0.555570737394741   0.124857070361795   1.0000000
N2   N   0.777800298218410   0.055565536724289   0.625290248406714   1.0000000
N2   N   0.277748467432133   0.055607930285314   0.125550509563210   1.0000000
N2   N   0.444477115246479   0.555551657710891   0.126399540165241   1.0000000
N2   N   0.777795563252529   0.555621390226908   0.127522301672646   1.0000000
N2   N   0.611141394619130   0.055557587274020   0.125486298621119   1.0000000
N2   N   0.444477115246479   0.555551657710891   0.623600459834767   1.0000000
N2   N   0.944435108304844   0.055595315946076   0.124496030416257   1.0000000
N2   N   0.277794384204135   0.722246323880044   0.625353405411553   1.0000000
N2   N   0.111055251907752   0.222227687743848   0.625305275466620   1.0000000
N2   N   0.444394289562089   0.222232027850335   0.621711376472629   1.0000000
N2   N   0.611181889976693   0.722270667818413   0.624575904698789   1.0000000
N2   N   0.944445402885538   0.722286400029522   0.624540971508941   1.0000000
N2   N   0.777801324901904   0.222203694062043   0.624090261084585   1.0000000
N2   N   0.111107129201119   0.722265315075418   0.124893174955630   1.0000000
N2   N   0.444485221092770   0.722228491287005   0.124813593456508   1.0000000
N2   N   0.277736998983266   0.222258435937332   0.126290862006317   1.0000000
N2   N   0.777829335523339   0.722319661796037   0.125746711360614   1.0000000
N2   N   0.611164571224083   0.222195468590011   0.127955026867450   1.0000000
N2   N   0.944428616782521   0.222229147277425   0.124727369972701   1.0000000
N2   N   0.111100528136664   0.388894154668653   0.625317178378452   1.0000000
N2   N   0.277785107918003   0.888942824775476   0.625143456350388   1.0000000
N2   N   0.611148953264093   0.888908182096012   0.625347714209336   1.0000000
N2   N   0.444491195873648   0.388924461092600   0.620590692566417   1.0000000
N2   N   0.944461030362183   0.888973026160039   0.625300656405814   1.0000000
N2   N   0.111099085086102   0.888952142328343   0.124714636327845   1.0000000
N2   N   0.777796807609216   0.388884873837689   0.622365865296250   1.0000000
N2   N   0.444470717614726   0.888919432839527   0.124827405914032   1.0000000
N2   N   0.277776547307028   0.388868504804456   0.125826591157984   1.0000000
N2   N   0.277795284438247   0.555551900314409   0.124872032302352   1.0000000
N2   N   0.611207490738090   0.388869163151480   0.128987887908459   1.0000000
N2   N   0.777827152736448   0.888959355944972   0.124670613161377   1.0000000
N2   N   0.944432332569540   0.388895260722874   0.125517274654804   1.0000000
N2   N   0.111106002364090   0.555570737394741   0.625142929638226   1.0000000
N2   N   0.277748467432133   0.055607930285314   0.624449490436789   1.0000000
N2   N   0.777795563252529   0.555621390226908   0.622477698327368   1.0000000
N2   N   0.611141394619130   0.055557587274020   0.624513701378884   1.0000000
N2   N   0.944435108304844   0.055595315946076   0.625503969583727   1.0000000
N2   N   0.052702958412848   0.111284128958007   0.375000000000000   1.0000000
N2   N   0.558768996748863   0.600794600344701   0.375000000000000   1.0000000
N2   N   0.384918020682765   0.108541732209905   0.375000000000000   1.0000000
N2   N   0.897340030405668   0.618692223289477   0.375000000000000   1.0000000
N2   N   0.719348473473269   0.111424495878757   0.375000000000000   1.0000000
N2   N   0.055562828064759   0.777782943715793   0.875000000000000   1.0000000
N2   N   0.388888568415479   0.777790026390934   0.875000000000000   1.0000000
N2   N   0.222237544837768   0.277796577841079   0.875000000000000   1.0000000
N2   N   0.722219716868278   0.777778521412016   0.875000000000000   1.0000000
N2   N   0.555556921817886   0.277786077239385   0.875000000000000   1.0000000
N2   N   0.888892904045037   0.277800417408796   0.875000000000000   1.0000000
N2   N   0.223185047036172   0.776487479652156   0.375000000000000   1.0000000
N2   N   0.051019382496866   0.277714713180766   0.375000000000000   1.0000000
N2   N   0.381798073299256   0.275466808061309   0.375000000000000   1.0000000
N2   N   0.555580262396546   0.771774109285852   0.375000000000000   1.0000000
N2   N   0.895644769754996   0.784993014935053   0.375000000000000   1.0000000
N2   N   0.717254518345603   0.279676077831753   0.375000000000000   1.0000000
N2   N   0.055565299808848   0.944453849633294   0.875000000000000   1.0000000
N2   N   0.388893055098191   0.944454932390250   0.875000000000000   1.0000000
N2   N   0.222232808574690   0.444461874856587   0.875000000000000   1.0000000
N2   N   0.555554531250702   0.444449077377794   0.875000000000000   1.0000000
N2   N   0.722219161678374   0.944452710959011   0.875000000000000   1.0000000
N2   N   0.888894358738206   0.444461402581016   0.875000000000000   1.0000000
N2   N   0.051130346831901   0.444358293192064   0.375000000000000   1.0000000
N2   N   0.222543105791148   0.943982482724962   0.375000000000000   1.0000000
N2   N   0.554103563885770   0.939922396150568   0.375000000000000   1.0000000
N2   N   0.381343985557895   0.437583600507016   0.375000000000000   1.0000000
N2   N   0.888400174047152   0.946260211752722   0.375000000000000   1.0000000
N2   N   0.719065138494356   0.460457674430049   0.375000000000000   1.0000000
N2   N   0.222225592000361   0.611123882354914   0.875000000000000   1.0000000
N2   N   0.055565603873940   0.111123107478857   0.875000000000000   1.0000000
N2   N   0.555549647797725   0.611114122181966   0.875000000000000   1.0000000
N2   N   0.388899964549107   0.111123165874111   0.875000000000000   1.0000000
N2   N   0.888893620771386   0.611115112971901   0.875000000000000   1.0000000
N2   N   0.056806955316779   0.611672523574058   0.375000000000000   1.0000000
N2   N   0.722218205384482   0.111126342676672   0.875000000000000   1.0000000
N2   N   0.220543266997416   0.110921863441807   0.375000000000000   1.0000000
N2   N   0.389682349439910   0.605511656269130   0.375000000000000   1.0000000
N2   N   0.736995523381998   0.625324672080583   0.375000000000000   1.0000000
N2   N   0.552263868421443   0.105627087351717   0.375000000000000   1.0000000
N2   N   0.388891034311392   0.611122280631004   0.875000000000000   1.0000000
N2   N   0.885909904343910   0.111984743379934   0.375000000000000   1.0000000
N2   N   0.222227234262413   0.777786759893951   0.875000000000000   1.0000000
N2   N   0.055564281340389   0.277797263920374   0.875000000000000   1.0000000
N2   N   0.388905364380888   0.277798877988198   0.875000000000000   1.0000000
N2   N   0.555550152770708   0.777783690156491   0.875000000000000   1.0000000
N2   N   0.888893373590177   0.777781153798774   0.875000000000000   1.0000000
N2   N   0.722222088142056   0.277795356908714   0.875000000000000   1.0000000
N2   N   0.059738377422243   0.780972112292524   0.375000000000000   1.0000000
N2   N   0.389013625384450   0.773785120503024   0.375000000000000   1.0000000
N2   N   0.216124425307979   0.275364939193359   0.375000000000000   1.0000000
N2   N   0.723216393931626   0.779361005160456   0.375000000000000   1.0000000
N2   N   0.548999851433010   0.268812397766629   0.375000000000000   1.0000000
N2   N   0.884493163118289   0.279114832136023   0.375000000000000   1.0000000
N2   N   0.055561514558906   0.444463482538223   0.875000000000000   1.0000000
N2   N   0.222231884207318   0.944454098607777   0.875000000000000   1.0000000
N2   N   0.555550854080218   0.944456118310743   0.875000000000000   1.0000000
N2   N   0.388902551063336   0.444458211793291   0.875000000000000   1.0000000
N2   N   0.888895137055351   0.944452615203431   0.875000000000000   1.0000000
N2   N   0.057582222771211   0.947418208675212   0.375000000000000   1.0000000
N2   N   0.722223951063744   0.444452275655603   0.875000000000000   1.0000000
N2   N   0.387793748626495   0.941454183005196   0.375000000000000   1.0000000
N2   N   0.218431736291808   0.442629923967213   0.375000000000000   1.0000000
N2   N   0.222367636440878   0.609178194602554   0.375000000000000   1.0000000
N2   N   0.720646360889071   0.944240867625970   0.375000000000000   1.0000000
N2   N   0.881962398795168   0.446569782140244   0.375000000000000   1.0000000
N2   N   0.055562167075470   0.611120344537607   0.875000000000000   1.0000000
N2   N   0.222237310873650   0.111126679949443   0.875000000000000   1.0000000
N2   N   0.722218565099262   0.611109049057384   0.875000000000000   1.0000000
N2   N   0.555554017707000   0.111123246159841   0.875000000000000   1.0000000
N2   N   0.888893183357983   0.111125248353866   0.875000000000000   1.0000000
B2   B   0.110815950281030   0.057564347380063   0.375000000000000   1.0000000
B2   B   0.628506491177168   0.550414457104922   0.375000000000000   1.0000000
B2   B   0.442067155835486   0.053839822017155   0.375000000000000   1.0000000
B2   B   0.945154548221368   0.557357498361388   0.375000000000000   1.0000000
B2   B   0.774640218094305   0.056068085230567   0.375000000000000   1.0000000
B2   B   0.111096454856048   0.722217909797640   0.875000000000000   1.0000000
B2   B   0.444454840913517   0.722210932289805   0.875000000000000   1.0000000
B2   B   0.277917384014095   0.222298254353240   0.875000000000000   1.0000000
B2   B   0.777712292851681   0.722110098050517   0.875000000000000   1.0000000
B2   B   0.611078370154346   0.222312142283631   0.875000000000000   1.0000000
B2   B   0.944429796233758   0.222263664330852   0.875000000000000   1.0000000
B2   B   0.278163011708181   0.720098404500382   0.375000000000000   1.0000000
B2   B   0.106472027151216   0.221755971045128   0.375000000000000   1.0000000
B2   B   0.445583524353778   0.223135736085306   0.375000000000000   1.0000000
B2   B   0.611346248210234   0.714039006636006   0.375000000000000   1.0000000
B2   B   0.949846294198620   0.727995914706096   0.375000000000000   1.0000000
B2   B   0.772507143860862   0.224647564037187   0.375000000000000   1.0000000
B2   B   0.111137238379033   0.888899450183445   0.875000000000000   1.0000000
B2   B   0.444452902813653   0.888935160461229   0.875000000000000   1.0000000
B2   B   0.277881697526388   0.388922485804400   0.875000000000000   1.0000000
B2   B   0.611081601088232   0.388882574465155   0.875000000000000   1.0000000
B2   B   0.777743200612474   0.888840328393137   0.875000000000000   1.0000000
B2   B   0.944389539094547   0.388918695820482   0.875000000000000   1.0000000
B2   B   0.106749342114291   0.388597422947556   0.375000000000000   1.0000000
B2   B   0.277724339093196   0.887668630919667   0.375000000000000   1.0000000
B2   B   0.609576256552165   0.884140388367865   0.375000000000000   1.0000000
B2   B   0.947423907784057   0.893760530104539   0.375000000000000   1.0000000
B2   B   0.764233828452664   0.392887776338416   0.375000000000000   1.0000000
B2   B   0.277816666767578   0.555565213310205   0.875000000000000   1.0000000
B2   B   0.111182888097934   0.055592895998144   0.875000000000000   1.0000000
B2   B   0.611081181979382   0.555452663782201   0.875000000000000   1.0000000
B2   B   0.444486771474540   0.055653331781397   0.875000000000000   1.0000000
B2   B   0.944371895131908   0.555531102602604   0.875000000000000   1.0000000
B2   B   0.110739102069633   0.555152775552334   0.375000000000000   1.0000000
B2   B   0.777740729349961   0.055582380609490   0.875000000000000   1.0000000
B2   B   0.276576514154934   0.055021838986571   0.375000000000000   1.0000000
B2   B   0.447200174350064   0.548679257043720   0.375000000000000   1.0000000
B2   B   0.788128878397500   0.567771230088130   0.375000000000000   1.0000000
B2   B   0.607986039054589   0.052159636072033   0.375000000000000   1.0000000
B2   B   0.444496089262534   0.555523688624421   0.875000000000000   1.0000000
B2   B   0.942001761249270   0.056716231585630   0.375000000000000   1.0000000
B2   B   0.277790131649140   0.722241329170949   0.875000000000000   1.0000000
B2   B   0.111181067861863   0.222267277001963   0.875000000000000   1.0000000
B2   B   0.444546657507673   0.222319302626828   0.875000000000000   1.0000000
B2   B   0.611084614733808   0.722139036752853   0.875000000000000   1.0000000
B2   B   0.944390332824376   0.722160549960584   0.875000000000000   1.0000000
B2   B   0.777712213625182   0.222285899525994   0.875000000000000   1.0000000
B2   B   0.112550128349891   0.722662525700429   0.375000000000000   1.0000000
B2   B   0.444593617695161   0.717033979511408   0.375000000000000   1.0000000
B2   B   0.274072835631151   0.221949619923439   0.375000000000000   1.0000000
B2   B   0.785226479812796   0.730858152365619   0.375000000000000   1.0000000
B2   B   0.603471705106175   0.219307862899750   0.375000000000000   1.0000000
B2   B   0.939866030861957   0.223328846295022   0.375000000000000   1.0000000
B2   B   0.111134873030414   0.388921658445760   0.875000000000000   1.0000000
B2   B   0.277815983374820   0.888940020501457   0.875000000000000   1.0000000
B2   B   0.611085485790260   0.888885747559258   0.875000000000000   1.0000000
B2   B   0.444554461113573   0.388911180311146   0.875000000000000   1.0000000
B2   B   0.944432825617075   0.888850699856761   0.875000000000000   1.0000000
B2   B   0.112988749518496   0.891092672720287   0.375000000000000   1.0000000
B2   B   0.777683793702409   0.388904312772954   0.875000000000000   1.0000000
B2   B   0.443388627952384   0.885505837593243   0.375000000000000   1.0000000
B2   B   0.272196777618253   0.385182693915536   0.375000000000000   1.0000000
B2   B   0.277995257509589   0.553164298631687   0.375000000000000   1.0000000
B2   B   0.776777828287821   0.889559488981362   0.375000000000000   1.0000000
B2   B   0.937897511086413   0.390512722190667   0.375000000000000   1.0000000
B2   B   0.111096343452463   0.555565568522894   0.875000000000000   1.0000000
B2   B   0.277878369187074   0.055638243727052   0.875000000000000   1.0000000
B2   B   0.777682414385454   0.555470138622063   0.875000000000000   1.0000000
B2   B   0.611081667308292   0.055627738431009   0.875000000000000   1.0000000
B2   B   0.944452468758194   0.055564783006293   0.875000000000000   1.0000000
B2   B   0.055575858068707   0.111159903951879   0.124970632036003   1.0000000
B2   B   0.555764654140933   0.610867540318952   0.127390242655305   1.0000000
B2   B   0.389155986386718   0.111565795025873   0.127568323464214   1.0000000
B2   B   0.888518668829203   0.610943770049524   0.126961439547636   1.0000000
B2   B   0.722191326668714   0.111224399728703   0.125870264571687   1.0000000
B2   B   0.055431646263997   0.777789870333106   0.624658997476907   1.0000000
B2   B   0.389005730903938   0.777844030827287   0.624974931880881   1.0000000
B2   B   0.222373189570989   0.277788132194415   0.623996840499223   1.0000000
B2   B   0.722236125380856   0.777673155151184   0.624225620743290   1.0000000
B2   B   0.555720555279254   0.278129477813071   0.618452193578208   1.0000000
B2   B   0.888716976564704   0.277768143702787   0.624182109855242   1.0000000
B2   B   0.222237378931825   0.777881139230269   0.125059684319502   1.0000000
B2   B   0.055525165378508   0.277760857753798   0.124991632950597   1.0000000
B2   B   0.389260773079135   0.278004005101822   0.129398530651889   1.0000000
B2   B   0.555690548330856   0.777721746162886   0.125310997962182   1.0000000
B2   B   0.888737204301204   0.777697736527289   0.125761201895562   1.0000000
B2   B   0.721998410825788   0.277836756742172   0.128301131064866   1.0000000
B2   B   0.055550314000611   0.944524383631840   0.624971877361439   1.0000000
B2   B   0.389046269972898   0.944748900349045   0.624328727213622   1.0000000
B2   B   0.222325108158133   0.444369772525906   0.624635042462305   1.0000000
B2   B   0.555854854393896   0.444299098182122   0.617900243313994   1.0000000
B2   B   0.722253340904813   0.944467312378731   0.624986384435637   1.0000000
B2   B   0.888529284213163   0.444336334528021   0.622941479574583   1.0000000
B2   B   0.055419346493096   0.444388044597857   0.125313800435540   1.0000000
B2   B   0.222318511891792   0.944674142521231   0.125376234675926   1.0000000
B2   B   0.555655701490420   0.944603028816614   0.125345935254675   1.0000000
B2   B   0.389227441819029   0.444296293022936   0.128061074924536   1.0000000
B2   B   0.888867342609266   0.944450830812155   0.124976721037701   1.0000000
B2   B   0.721778284738273   0.444257563421940   0.129927022436701   1.0000000
B2   B   0.222235418994330   0.611081569674391   0.624979062428491   1.0000000
B2   B   0.055575858068708   0.111159903951879   0.625029367963990   1.0000000
B2   B   0.555764654140933   0.610867540318952   0.622609757344698   1.0000000
B2   B   0.389155986386718   0.111565795025873   0.622431676535776   1.0000000
B2   B   0.888518668829203   0.610943770049524   0.623038560452384   1.0000000
B2   B   0.055358918896756   0.611055833469131   0.125570691214922   1.0000000
B2   B   0.722191326668714   0.111224399728703   0.624129735428329   1.0000000
B2   B   0.222390847136578   0.111317557602560   0.125978516490980   1.0000000
B2   B   0.389069793357176   0.610989590539686   0.125681110656951   1.0000000
B2   B   0.722007540022542   0.610869073392623   0.128263829680291   1.0000000
B2   B   0.555683785598427   0.111485652563144   0.127460051484219   1.0000000
B2   B   0.389069793357176   0.610989590539686   0.624318889343042   1.0000000
B2   B   0.888847245079137   0.111136660064378   0.124982566904787   1.0000000
B2   B   0.222237378931825   0.777881139230269   0.624940315680471   1.0000000
B2   B   0.055525165378508   0.277760857753798   0.625008367049417   1.0000000
B2   B   0.389260773079135   0.278004005101822   0.620601469348119   1.0000000
B2   B   0.555690548330856   0.777721746162886   0.624689002037812   1.0000000
B2   B   0.888737204301204   0.777697736527289   0.624238798104440   1.0000000
B2   B   0.721998410825788   0.277836756742172   0.621698868935145   1.0000000
B2   B   0.055431646263997   0.777789870333106   0.125341002523086   1.0000000
B2   B   0.389005730903938   0.777844030827287   0.125025068119106   1.0000000
B2   B   0.222373189570988   0.277788132194415   0.126003159500770   1.0000000
B2   B   0.722236125380856   0.777673155151184   0.125774379256709   1.0000000
B2   B   0.555720555279254   0.278129477813071   0.131547806421815   1.0000000
B2   B   0.888716976564704   0.277768143702787   0.125817890144761   1.0000000
B2   B   0.055419346493096   0.444388044597857   0.624686199564452   1.0000000
B2   B   0.222318511891792   0.944674142521231   0.624623765324068   1.0000000
B2   B   0.555655701490420   0.944603028816614   0.624654064745331   1.0000000
B2   B   0.389227441819029   0.444296293022936   0.621938925075447   1.0000000
B2   B   0.888867342609266   0.944450830812155   0.625023278962304   1.0000000
B2   B   0.055550314000611   0.944524383631840   0.125028122638549   1.0000000
B2   B   0.721778284738273   0.444257563421940   0.620072977563302   1.0000000
B2   B   0.389046269972898   0.944748900349045   0.125671272786382   1.0000000
B2   B   0.222325108158133   0.444369772525906   0.125364957537729   1.0000000
B2   B   0.222235418994330   0.611081569674391   0.125020937571499   1.0000000
B2   B   0.555854854393896   0.444299098182122   0.132099756686007   1.0000000
B2   B   0.722253340904813   0.944467312378731   0.125013615564368   1.0000000
B2   B   0.888529284213163   0.444336334528021   0.127058520425411   1.0000000
B2   B   0.055358918896755   0.611055833469131   0.624429308785057   1.0000000
B2   B   0.222390847136578   0.111317557602560   0.624021483509018   1.0000000
B2   B   0.722007540022542   0.610869073392623   0.621736170319701   1.0000000
B2   B   0.555683785598427   0.111485652563144   0.622539948515759   1.0000000
B2   B   0.888847245079137   0.111136660064378   0.625017433095221   1.0000000


