data_1
_audit_creation_method   'vasp2cif'
_cell_length_a    17.52789999999977
_cell_length_b    17.52789999999977
_cell_length_c    15.0
_cell_angle_alpha    90.0
_cell_angle_beta    90.0
_cell_angle_gamma    119.99999999999916

_symmetry_space_group_name_H-M    'P 1'
loop_
_atom_site_label
_atom_site_type_symbol
_atom_site_fract_x
_atom_site_fract_y
_atom_site_fract_z
_atom_site_occupancy
Al2   Al   0.489131948559411   0.510869453357585   0.111431321896960   1.0000000
B2   B   0.906359580317410   0.953421803449007   0.111002695066796   1.0000000
B2   B   0.904569430878737   0.095432590317259   0.111017188569902   1.0000000
B2   B   0.904059194851670   0.238191941744239   0.111024492196957   1.0000000
B2   B   0.904375099034865   0.381099083312533   0.110984385225515   1.0000000
B2   B   0.906095255917566   0.524208929294408   0.111045607181413   1.0000000
B2   B   0.908070727429220   0.667775200779466   0.111062436261217   1.0000000
B2   B   0.908562133439646   0.811583024233958   0.111029938396831   1.0000000
B2   B   0.048450261488912   0.951551759707092   0.110999936498320   1.0000000
B2   B   0.046580217746997   0.093642440878586   0.111002695066796   1.0000000
B2   B   0.046077288731444   0.237000683426668   0.110979019103473   1.0000000
B2   B   0.046653730337191   0.380407193971679   0.111007125113394   1.0000000
B2   B   0.048214345551757   0.523423153323759   0.111019783812897   1.0000000
B2   B   0.049466484462614   0.666335667383953   0.111057495232097   1.0000000
B2   B   0.049564236714812   0.809185111230584   0.111035411967769   1.0000000
B2   B   0.190816909965420   0.950437784481192   0.111035411967769   1.0000000
B2   B   0.188418996962045   0.091439887756351   0.111029938396831   1.0000000
B2   B   0.186473218299297   0.233730313117516   0.110974857631749   1.0000000
B2   B   0.187886054975127   0.378924824101932   0.111008193033227   1.0000000
B2   B   0.190534364596589   0.522697207373145   0.111036989460605   1.0000000
B2   B   0.191894610435494   0.665630076952641   0.111034449437226   1.0000000
B2   B   0.191726392851500   0.808275628344503   0.111004230582268   1.0000000
B2   B   0.333666353813046   0.950535536733389   0.111057495232097   1.0000000
B2   B   0.332226820417534   0.091931293766777   0.111062436261217   1.0000000
B2   B   0.327506011594427   0.230141548753657   0.110990302074432   1.0000000
B2   B   0.325232756773169   0.374176006906956   0.111038692642911   1.0000000
B2   B   0.332689024175816   0.520982740502791   0.111099099272413   1.0000000
B2   B   0.334949315503881   0.665052705693117   0.111067432298039   1.0000000
B2   B   0.334371944244358   0.808107410760509   0.111034449437226   1.0000000
B2   B   0.476578867873239   0.951787675644247   0.111019783812897   1.0000000
B2   B   0.475793091902590   0.093906765278431   0.111045607181413   1.0000000
B2   B   0.474052947755508   0.234818617457648   0.111008953586955   1.0000000
B2   B   0.463323445341101   0.364963484768233   0.111121732117303   1.0000000
B2   B   0.479019280694207   0.667312997021183   0.111099099272413   1.0000000
B2   B   0.477304813823853   0.809467656599414   0.111036989460605   1.0000000
B2   B   0.619594827224324   0.953348290858813   0.111007125113394   1.0000000
B2   B   0.618902937883471   0.095626922161132   0.110984385225515   1.0000000
B2   B   0.618397249356895   0.238329248235486   0.110980695340752   1.0000000
B2   B   0.618239034727457   0.381762986468547   0.110992728172810   1.0000000
B2   B   0.635038536427770   0.536678575855896   0.111121732117303   1.0000000
B2   B   0.625826014289047   0.674769264423829   0.111038692642911   1.0000000
B2   B   0.621077197094071   0.812115966220876   0.111008193033227   1.0000000
B2   B   0.763001337769336   0.953924732464560   0.110979019103473   1.0000000
B2   B   0.761810079451764   0.095942826344327   0.111024492196957   1.0000000
B2   B   0.761416467472749   0.238585553723255   0.111017433430551   1.0000000
B2   B   0.761672772960518   0.381604771839109   0.110980695340752   1.0000000
B2   B   0.765183403738355   0.525949073441491   0.111008953586955   1.0000000
B2   B   0.769860472442346   0.672496009602571   0.110990302074432   1.0000000
B2   B   0.766271708078486   0.813528802896707   0.110974857631749   1.0000000
N2   N   0.954073714841553   0.905646955560339   0.110984812427290   1.0000000
N2   N   0.952288388996545   0.047713012921462   0.110994782168269   1.0000000
N2   N   0.951424381999333   0.190309931138181   0.110992503387342   1.0000000
N2   N   0.951533354031267   0.333281750970636   0.110983083605843   1.0000000
N2   N   0.952701714575084   0.476169444239548   0.110994496509731   1.0000000
N2   N   0.954066927412207   0.619140989954223   0.111061706815733   1.0000000
N2   N   0.954607447061956   0.762444035312278   0.111041689506477   1.0000000
N2   N   0.096093850308627   0.903907551609371   0.110999480912835   1.0000000
N2   N   0.094354446357659   0.045927687076452   0.110984812427290   1.0000000
N2   N   0.092778354254606   0.188209570355630   0.110969938381058   1.0000000
N2   N   0.093441191701377   0.332096349768821   0.110969866900253   1.0000000
N2   N   0.095280407048513   0.475493426594525   0.111006416819247   1.0000000
N2   N   0.096526737703674   0.618421123885153   0.111024297128993   1.0000000
N2   N   0.096676812821344   0.761231424910441   0.111009034020419   1.0000000
N2   N   0.238769977007564   0.903324589096654   0.111009034020419   1.0000000
N2   N   0.237557366605726   0.045393954856051   0.111041689506477   1.0000000
N2   N   0.234297593131396   0.185937369221154   0.110992108284830   1.0000000
N2   N   0.232595174468706   0.328264243147857   0.110965765656866   1.0000000
N2   N   0.237376524099599   0.474251895876935   0.111013609595743   1.0000000
N2   N   0.239482256223089   0.617820553806569   0.111039663825649   1.0000000
N2   N   0.239304795328224   0.760696606589783   0.111000346242224   1.0000000
N2   N   0.381580278032846   0.903474664214325   0.111024297128993   1.0000000
N2   N   0.380860411963776   0.045934474505799   0.111061706815733   1.0000000
N2   N   0.379236236650528   0.187421265159919   0.111006299867707   1.0000000
N2   N   0.372792493068390   0.325255911266372   0.110973286606880   1.0000000
N2   N   0.374158103001962   0.467192661535436   0.111139355964124   1.0000000
N2   N   0.383058611534947   0.616942790383051   0.111070852964265   1.0000000
N2   N   0.382180848111429   0.760519145694915   0.111039663825649   1.0000000
N2   N   0.524507975322472   0.904720994869485   0.111006416819247   1.0000000
N2   N   0.523831957677449   0.047299687342922   0.110994496509731   1.0000000
N2   N   0.523096234006178   0.189864541271839   0.110991573260166   1.0000000
N2   N   0.521753302838990   0.332469224462060   0.111004672548392   1.0000000
N2   N   0.532808740381561   0.625843298916038   0.111139355964124   1.0000000
N2   N   0.525749506040063   0.762624877818406   0.111013609595743   1.0000000
N2   N   0.667905052148175   0.906560210216622   0.110969866900253   1.0000000
N2   N   0.666719650946361   0.048468047886738   0.110983083605843   1.0000000
N2   N   0.666069734677794   0.191262378553732   0.110976545250444   1.0000000
N2   N   0.665414721966025   0.334586679950971   0.110949708376824   1.0000000
N2   N   0.667532177454937   0.478248099078008   0.111004672548392   1.0000000
N2   N   0.674745490650625   0.627208908849608   0.110973286606880   1.0000000
N2   N   0.671737158769139   0.767406227449299   0.110965765656866   1.0000000
N2   N   0.811791831562369   0.907223047663392   0.110969938381058   1.0000000
N2   N   0.809691470779818   0.048577019918673   0.110992503387342   1.0000000
N2   N   0.808932000504760   0.191069401413239   0.111024243170483   1.0000000
N2   N   0.808739023364267   0.333931667239202   0.110976545250444   1.0000000
N2   N   0.810136860646159   0.476905167910819   0.110991573260166   1.0000000
N2   N   0.812580136758080   0.620765165267470   0.111006299867707   1.0000000
N2   N   0.814064032696844   0.765703808786610   0.110992108284830   1.0000000


