data_1
_audit_creation_method   'vasp2cif'
_cell_length_a    14.93631414619966
_cell_length_b    14.936314146199727
_cell_length_c    13.341276283792837
_cell_angle_alpha    90.0
_cell_angle_beta    90.0
_cell_angle_gamma    119.99999999999984

_symmetry_space_group_name_H-M    'P 1'
loop_
_atom_site_label
_atom_site_type_symbol
_atom_site_fract_x
_atom_site_fract_y
_atom_site_fract_z
_atom_site_occupancy
As2   As   0.555555555555557   0.444444444444443   0.375000000000000   1.0000000
N2   N   0.111087485178792   0.055548958066313   0.125061684042784   1.0000000
N2   N   0.611173733344906   0.555680800023135   0.123345883061438   1.0000000
N2   N   0.444450059508412   0.055565335554392   0.125245893586083   1.0000000
N2   N   0.944434664445590   0.555549940491614   0.125245893586083   1.0000000
N2   N   0.777783947357157   0.055558640345268   0.124925387018450   1.0000000
N2   N   0.111100929576294   0.722217131454810   0.624993554475629   1.0000000
N2   N   0.444450059508412   0.722218057287339   0.624754106413908   1.0000000
N2   N   0.277734385815188   0.222202998859585   0.625037111504325   1.0000000
N2   N   0.777797001140391   0.722265614184750   0.625037111504325   1.0000000
N2   N   0.611135279711068   0.222202998859585   0.625037111504325   1.0000000
N2   N   0.944441359654682   0.222216052642804   0.625074612981577   1.0000000
N2   N   0.277782868545203   0.722217131454810   0.125006445524414   1.0000000
N2   N   0.111078398148847   0.222205865741103   0.124993630403733   1.0000000
N2   N   0.444456019385279   0.222245372103890   0.125115747805162   1.0000000
N2   N   0.611135279711068   0.722265614184750   0.124962888495688   1.0000000
N2   N   0.944434664445590   0.722218057287339   0.125245893586083   1.0000000
N2   N   0.777794134258864   0.222205865741103   0.124993630403733   1.0000000
N2   N   0.111106768561696   0.888893231438319   0.624939153458042   1.0000000
N2   N   0.444453129543273   0.888893231438319   0.624939153458042   1.0000000
N2   N   0.277734385815188   0.388864720288934   0.625037111504325   1.0000000
N2   N   0.611173733344906   0.388826266655097   0.626654116938574   1.0000000
N2   N   0.777794134258864   0.888921601851184   0.625006369596277   1.0000000
N2   N   0.944451041933712   0.388871860445806   0.624938315957221   1.0000000
N2   N   0.111087485178792   0.388871860445806   0.125061684042784   1.0000000
N2   N   0.277782868545203   0.888899070423734   0.125006445524414   1.0000000
N2   N   0.611128139554147   0.888912514821202   0.125061684042784   1.0000000
N2   N   0.444319199976916   0.388826266655097   0.123345883061438   1.0000000
N2   N   0.944451041933712   0.888912514821202   0.125061684042784   1.0000000
N2   N   0.777797001140391   0.388864720288934   0.124962888495688   1.0000000
N2   N   0.277781942712668   0.555549940491614   0.624754106413908   1.0000000
N2   N   0.111087485178792   0.055548958066313   0.624938315957221   1.0000000
N2   N   0.611173733344906   0.555680800023135   0.626654116938574   1.0000000
N2   N   0.444450059508412   0.055565335554392   0.624754106413908   1.0000000
N2   N   0.944434664445590   0.555549940491614   0.624754106413908   1.0000000
N2   N   0.111106768561696   0.555546870456745   0.125060846541897   1.0000000
N2   N   0.777783947357157   0.055558640345268   0.625074612981577   1.0000000
N2   N   0.277781942712668   0.055565335554392   0.125245893586083   1.0000000
N2   N   0.444456019385279   0.555543980614652   0.125115747805162   1.0000000
N2   N   0.777754627896106   0.555543980614652   0.125115747805162   1.0000000
N2   N   0.611128139554147   0.055548958066313   0.125061684042784   1.0000000
N2   N   0.444456019385279   0.555543980614652   0.624884252194846   1.0000000
N2   N   0.944441359654682   0.055558640345268   0.124925387018450   1.0000000
N2   N   0.277782868545203   0.722217131454810   0.624993554475629   1.0000000
N2   N   0.111078398148847   0.222205865741103   0.625006369596277   1.0000000
N2   N   0.444456019385279   0.222245372103890   0.624884252194846   1.0000000
N2   N   0.611135279711068   0.722265614184750   0.625037111504325   1.0000000
N2   N   0.944434664445590   0.722218057287339   0.624754106413908   1.0000000
N2   N   0.777794134258864   0.222205865741103   0.625006369596277   1.0000000
N2   N   0.111100929576294   0.722217131454810   0.125006445524414   1.0000000
N2   N   0.444450059508412   0.722218057287339   0.125245893586083   1.0000000
N2   N   0.277734385815188   0.222202998859585   0.124962888495688   1.0000000
N2   N   0.777797001140391   0.722265614184750   0.124962888495688   1.0000000
N2   N   0.611135279711068   0.222202998859585   0.124962888495688   1.0000000
N2   N   0.944441359654682   0.222216052642804   0.124925387018452   1.0000000
N2   N   0.111087485178792   0.388871860445806   0.624938315957221   1.0000000
N2   N   0.277782868545203   0.888899070423734   0.624993554475629   1.0000000
N2   N   0.611128139554147   0.888912514821202   0.624938315957221   1.0000000
N2   N   0.444319199976916   0.388826266655097   0.626654116938574   1.0000000
N2   N   0.944451041933712   0.888912514821202   0.624938315957221   1.0000000
N2   N   0.111106768561696   0.888893231438319   0.125060846541897   1.0000000
N2   N   0.777797001140391   0.388864720288934   0.625037111504325   1.0000000
N2   N   0.444453129543273   0.888893231438319   0.125060846541897   1.0000000
N2   N   0.277734385815188   0.388864720288934   0.124962888495688   1.0000000
N2   N   0.277781942712668   0.555549940491614   0.125245893586083   1.0000000
N2   N   0.611173733344906   0.388826266655097   0.123345883061438   1.0000000
N2   N   0.777794134258864   0.888921601851184   0.124993630403733   1.0000000
N2   N   0.944451041933712   0.388871860445806   0.125061684042784   1.0000000
N2   N   0.111106768561696   0.555546870456745   0.624939153458042   1.0000000
N2   N   0.277781942712668   0.055565335554392   0.624754106413908   1.0000000
N2   N   0.777754627896106   0.555543980614652   0.624884252194846   1.0000000
N2   N   0.611128139554147   0.055548958066313   0.624938315957221   1.0000000
N2   N   0.944441359654682   0.055558640345268   0.625074612981577   1.0000000
N2   N   0.054474051884382   0.110384849028802   0.375000000000000   1.0000000
N2   N   0.555693211721959   0.620489897682989   0.375000000000000   1.0000000
N2   N   0.387635045049338   0.108603423431993   0.375000000000000   1.0000000
N2   N   0.891396576567981   0.612364954950666   0.375000000000000   1.0000000
N2   N   0.722577463811107   0.110384849028802   0.375000000000000   1.0000000
N2   N   0.055557605851465   0.777777132657260   0.875000000000000   1.0000000
N2   N   0.388886193472465   0.777777132657260   0.875000000000000   1.0000000
N2   N   0.222231201958385   0.277782267645849   0.875000000000000   1.0000000
N2   N   0.722217732354160   0.777768798041638   0.875000000000000   1.0000000
N2   N   0.555543414433125   0.277768317185777   0.875000000000000   1.0000000
N2   N   0.888890713077678   0.277782129149032   0.875000000000000   1.0000000
N2   N   0.222222222222221   0.777777777777779   0.375000000000000   1.0000000
N2   N   0.054474051884382   0.277422536188923   0.375000000000000   1.0000000
N2   N   0.379510102316981   0.268536647372297   0.375000000000000   1.0000000
N2   N   0.555146180936886   0.781457012270700   0.375000000000000   1.0000000
N2   N   0.892977498000453   0.781457012270700   0.375000000000000   1.0000000
N2   N   0.723963158311313   0.276036841688649   0.375000000000000   1.0000000
N2   N   0.055557625977113   0.944442374022888   0.875000000000000   1.0000000
N2   N   0.388886193472465   0.944442394148521   0.875000000000000   1.0000000
N2   N   0.222223904420982   0.444449891346906   0.875000000000000   1.0000000
N2   N   0.555555555555557   0.444444444444443   0.875000000000000   1.0000000
N2   N   0.722217870850985   0.944441917261956   0.875000000000000   1.0000000
N2   N   0.888892653592612   0.444449891346906   0.875000000000000   1.0000000
N2   N   0.055739871009563   0.444813075352452   0.375000000000000   1.0000000
N2   N   0.221839328298068   0.943425508473356   0.375000000000000   1.0000000
N2   N   0.555186924647567   0.944260128990428   0.375000000000000   1.0000000
N2   N   0.379510102316981   0.444306788278025   0.375000000000000   1.0000000
N2   N   0.889615150971244   0.945525948115571   0.375000000000000   1.0000000
N2   N   0.731463352627724   0.444306788278025   0.375000000000000   1.0000000
N2   N   0.222222867342751   0.611113806527540   0.875000000000000   1.0000000
N2   N   0.055558082738043   0.111109286922355   0.875000000000000   1.0000000
N2   N   0.555543414433125   0.611108430580639   0.875000000000000   1.0000000
N2   N   0.388884717317515   0.111102767968353   0.875000000000000   1.0000000
N2   N   0.888897232031627   0.611115282682502   0.875000000000000   1.0000000
N2   N   0.056574491526651   0.611747153158039   0.375000000000000   1.0000000
N2   N   0.722217870850985   0.111109286922355   0.875000000000000   1.0000000
N2   N   0.218542987729309   0.107022501999595   0.375000000000000   1.0000000
N2   N   0.387635045049338   0.612364954950666   0.375000000000000   1.0000000
N2   N   0.731463352627724   0.620489897682989   0.375000000000000   1.0000000
N2   N   0.555146180936886   0.107022501999597   0.375000000000000   1.0000000
N2   N   0.388884717317515   0.611115282682502   0.875000000000000   1.0000000
N2   N   0.888888888888886   0.111111111111114   0.375000000000000   1.0000000
N2   N   0.222222222222221   0.777777777777779   0.875000000000000   1.0000000
N2   N   0.055558082738043   0.277782129149032   0.875000000000000   1.0000000
N2   N   0.388891569419273   0.277768317185777   0.875000000000000   1.0000000
N2   N   0.555550108653117   0.777776095579011   0.875000000000000   1.0000000
N2   N   0.888892653592612   0.777776095579011   0.875000000000000   1.0000000
N2   N   0.722217732354160   0.277782267645849   0.875000000000000   1.0000000
N2   N   0.056574491526651   0.778160671701976   0.375000000000000   1.0000000
N2   N   0.388252846841946   0.778160671701976   0.375000000000000   1.0000000
N2   N   0.218740350044002   0.276036841688649   0.375000000000000   1.0000000
N2   N   0.723963158311313   0.781259649956039   0.375000000000000   1.0000000
N2   N   0.555693211721959   0.268536647372297   0.375000000000000   1.0000000
N2   N   0.889615150971244   0.277422536188923   0.375000000000000   1.0000000
N2   N   0.055557625977113   0.444448585287559   0.875000000000000   1.0000000
N2   N   0.222222867342751   0.944442394148521   0.875000000000000   1.0000000
N2   N   0.555551414712473   0.944442374022888   0.875000000000000   1.0000000
N2   N   0.388891569419273   0.444456585566839   0.875000000000000   1.0000000
N2   N   0.888890713077678   0.944441917261956   0.875000000000000   1.0000000
N2   N   0.055739871009563   0.944260128990428   0.375000000000000   1.0000000
N2   N   0.722231682814218   0.444456585566839   0.875000000000000   1.0000000
N2   N   0.388252846841946   0.943425508473356   0.375000000000000   1.0000000
N2   N   0.218542987729309   0.444853819063049   0.375000000000000   1.0000000
N2   N   0.221839328298068   0.611747153158039   0.375000000000000   1.0000000
N2   N   0.722577463811107   0.945525948115573   0.375000000000000   1.0000000
N2   N   0.892977498000453   0.444853819063049   0.375000000000000   1.0000000
N2   N   0.055557605851465   0.611113806527540   0.875000000000000   1.0000000
N2   N   0.222223904420982   0.111107346407425   0.875000000000000   1.0000000
N2   N   0.722231682814218   0.611108430580639   0.875000000000000   1.0000000
N2   N   0.555550108653117   0.111107346407425   0.875000000000000   1.0000000
N2   N   0.888888888888886   0.111111111111114   0.875000000000000   1.0000000
B2   B   0.108956848895587   0.053880558837604   0.375000000000000   1.0000000
B2   B   0.623754723783029   0.580842780899496   0.375000000000000   1.0000000
B2   B   0.443841339570648   0.053725663188374   0.375000000000000   1.0000000
B2   B   0.946274336811600   0.556158660429343   0.375000000000000   1.0000000
B2   B   0.778196490723944   0.055764912028616   0.375000000000000   1.0000000
B2   B   0.111069146923941   0.722201240128640   0.875000000000000   1.0000000
B2   B   0.444400866952090   0.722193841630413   0.875000000000000   1.0000000
B2   B   0.277828194876268   0.222277386431161   0.875000000000000   1.0000000
B2   B   0.777722613568871   0.722171805123683   0.875000000000000   1.0000000
B2   B   0.611115858221613   0.222277386431161   0.875000000000000   1.0000000
B2   B   0.944467079351302   0.222267492035980   0.875000000000000   1.0000000
B2   B   0.277531314332043   0.722468685667895   0.375000000000000   1.0000000
B2   B   0.108832167883048   0.221082750608176   0.375000000000000   1.0000000
B2   B   0.442861673709217   0.219056680751797   0.375000000000000   1.0000000
B2   B   0.612212339690170   0.729306533552904   0.375000000000000   1.0000000
B2   B   0.946274336811600   0.723449009715678   0.375000000000000   1.0000000
B2   B   0.778917249391807   0.221082750608176   0.375000000000000   1.0000000
B2   B   0.111113373608783   0.888886626391219   0.875000000000000   1.0000000
B2   B   0.444439919449123   0.888886626391219   0.875000000000000   1.0000000
B2   B   0.277828194876268   0.388884141778420   0.875000000000000   1.0000000
B2   B   0.611113098743497   0.388886901256489   0.875000000000000   1.0000000
B2   B   0.777768926109156   0.888871185551633   0.875000000000000   1.0000000
B2   B   0.944463924043930   0.388879225503806   0.875000000000000   1.0000000
B2   B   0.108956848895587   0.388409623391299   0.375000000000000   1.0000000
B2   B   0.277531314332043   0.888395961997415   0.375000000000000   1.0000000
B2   B   0.611590376608704   0.891043151104424   0.375000000000000   1.0000000
B2   B   0.419157219100519   0.376245276216916   0.375000000000000   1.0000000
B2   B   0.946119441162353   0.891043151104424   0.375000000000000   1.0000000
B2   B   0.783760860529404   0.387787660309829   0.375000000000000   1.0000000
B2   B   0.277806158369541   0.555599133047909   0.875000000000000   1.0000000
B2   B   0.111081968126565   0.055536075956079   0.875000000000000   1.0000000
B2   B   0.611113098743497   0.555559530820351   0.875000000000000   1.0000000
B2   B   0.444400866952090   0.055540358654964   0.875000000000000   1.0000000
B2   B   0.944459641345057   0.555599133047909   0.875000000000000   1.0000000
B2   B   0.111261944805236   0.555857222943813   0.375000000000000   1.0000000
B2   B   0.777732507964042   0.055532920648681   0.875000000000000   1.0000000
B2   B   0.276550990284383   0.053725663188374   0.375000000000000   1.0000000
B2   B   0.442861673709217   0.557138326290737   0.375000000000000   1.0000000
B2   B   0.780943319248230   0.557138326290737   0.375000000000000   1.0000000
B2   B   0.611590376608704   0.053880558837604   0.375000000000000   1.0000000
B2   B   0.444452280352673   0.555547719647319   0.875000000000000   1.0000000
B2   B   0.944235087971387   0.055764912028616   0.375000000000000   1.0000000
B2   B   0.277798759871342   0.722201240128640   0.875000000000000   1.0000000
B2   B   0.111128814448350   0.222231073890849   0.875000000000000   1.0000000
B2   B   0.444452280352673   0.222237894038738   0.875000000000000   1.0000000
B2   B   0.611115858221613   0.722171805123683   0.875000000000000   1.0000000
B2   B   0.944459641345057   0.722193841630413   0.875000000000000   1.0000000
B2   B   0.777768926109156   0.222231073890849   0.875000000000000   1.0000000
B2   B   0.111604038002554   0.722468685667895   0.375000000000000   1.0000000
B2   B   0.443841339570648   0.723449009715678   0.375000000000000   1.0000000
B2   B   0.270693466447125   0.216239139470607   0.375000000000000   1.0000000
B2   B   0.783760860529403   0.729306533552904   0.375000000000000   1.0000000
B2   B   0.612212339690170   0.216239139470595   0.375000000000000   1.0000000
B2   B   0.944235087971387   0.221803509276106   0.375000000000000   1.0000000
B2   B   0.111081968126565   0.388879225503806   0.875000000000000   1.0000000
B2   B   0.277798759871342   0.888930853076013   0.875000000000000   1.0000000
B2   B   0.611120774496183   0.888918031873425   0.875000000000000   1.0000000
B2   B   0.444440469179705   0.388886901256489   0.875000000000000   1.0000000
B2   B   0.944463924043930   0.888918031873425   0.875000000000000   1.0000000
B2   B   0.111261944805236   0.888738055194729   0.375000000000000   1.0000000
B2   B   0.777722613568871   0.388884141778420   0.875000000000000   1.0000000
B2   B   0.444142777056218   0.888738055194729   0.375000000000000   1.0000000
B2   B   0.270693466447125   0.387787660309829   0.375000000000000   1.0000000
B2   B   0.276550990284383   0.556158660429343   0.375000000000000   1.0000000
B2   B   0.623754723783029   0.376245276216916   0.375000000000000   1.0000000
B2   B   0.778917249391807   0.891167832116922   0.375000000000000   1.0000000
B2   B   0.946119441162353   0.388409623391299   0.375000000000000   1.0000000
B2   B   0.111113373608783   0.555560080550902   0.875000000000000   1.0000000
B2   B   0.277806158369541   0.055540358654964   0.875000000000000   1.0000000
B2   B   0.777762105961317   0.555547719647319   0.875000000000000   1.0000000
B2   B   0.611120774496183   0.055536075956079   0.875000000000000   1.0000000
B2   B   0.944467079351302   0.055532920648681   0.875000000000000   1.0000000
B2   B   0.055524248100470   0.111065407084770   0.125024184414728   1.0000000
B2   B   0.555678617505685   0.611094714370945   0.124548902509772   1.0000000
B2   B   0.388907668514532   0.111148670362404   0.125339447781343   1.0000000
B2   B   0.888851329637593   0.611092331485483   0.125339447781343   1.0000000
B2   B   0.722207825651022   0.111065407084770   0.125024184414728   1.0000000
B2   B   0.055495920477488   0.777713033197599   0.624872560588073   1.0000000
B2   B   0.388883779386787   0.777713033197599   0.624872560588073   1.0000000
B2   B   0.222274999062767   0.277804166198046   0.625004904094735   1.0000000
B2   B   0.722195833801952   0.777725000937243   0.625004904094735   1.0000000
B2   B   0.555678617505685   0.277917236468064   0.625451097490198   1.0000000
B2   B   0.888934592915260   0.277792174349029   0.624975815585285   1.0000000
B2   B   0.222222222222221   0.777777777777779   0.124994448301094   1.0000000
B2   B   0.055524248100470   0.277792174349029   0.125024184414728   1.0000000
B2   B   0.388905285629070   0.277917236468064   0.124548902509772   1.0000000
B2   B   0.555582750321733   0.777766814614438   0.125159097248087   1.0000000
B2   B   0.888850730959455   0.777766814614438   0.125159097248087   1.0000000
B2   B   0.722195833801952   0.277804166198046   0.124995095905267   1.0000000
B2   B   0.055517094679273   0.944482905320746   0.624907264524389   1.0000000
B2   B   0.388883779386787   0.944504079522517   0.624872560588073   1.0000000
B2   B   0.222233185385546   0.444417249678332   0.624840902751897   1.0000000
B2   B   0.555555555555557   0.444444444444443   0.625153084194790   1.0000000
B2   B   0.722207825651022   0.944475751899532   0.624975815585285   1.0000000
B2   B   0.888850730959455   0.444417249678332   0.624840902751897   1.0000000
B2   B   0.055517094679273   0.444367522691849   0.125092735475582   1.0000000
B2   B   0.222286966802382   0.944504079522517   0.125127439411896   1.0000000
B2   B   0.555632477308144   0.944482905320746   0.125092735475582   1.0000000
B2   B   0.388905285629070   0.444321382494325   0.124548902509772   1.0000000
B2   B   0.888934592915260   0.944475751899532   0.125024184414728   1.0000000
B2   B   0.722082763531940   0.444321382494325   0.124548902509772   1.0000000
B2   B   0.222286966802382   0.611116220613231   0.624872560588073   1.0000000
B2   B   0.055524248100470   0.111065407084770   0.624975815585285   1.0000000
B2   B   0.555678617505685   0.611094714370945   0.625451097490198   1.0000000
B2   B   0.388907668514532   0.111148670362404   0.624660552218687   1.0000000
B2   B   0.888851329637593   0.611092331485483   0.624660552218687   1.0000000
B2   B   0.055495920477488   0.611116220613231   0.125127439411896   1.0000000
B2   B   0.722207825651022   0.111065407084770   0.624975815585285   1.0000000
B2   B   0.222233185385546   0.111149269040567   0.125159097248087   1.0000000
B2   B   0.388907668514532   0.611092331485483   0.125339447781343   1.0000000
B2   B   0.722082763531940   0.611094714370945   0.124548902509772   1.0000000
B2   B   0.555582750321733   0.111149269040567   0.125159097248087   1.0000000
B2   B   0.388907668514532   0.611092331485483   0.624660552218687   1.0000000
B2   B   0.888888888888886   0.111111111111114   0.124971299125389   1.0000000
B2   B   0.222222222222221   0.777777777777779   0.625005551698884   1.0000000
B2   B   0.055524248100470   0.277792174349029   0.624975815585285   1.0000000
B2   B   0.388905285629070   0.277917236468064   0.625451097490198   1.0000000
B2   B   0.555582750321733   0.777766814614438   0.624840902751897   1.0000000
B2   B   0.888850730959455   0.777766814614438   0.624840902751897   1.0000000
B2   B   0.722195833801952   0.277804166198046   0.625004904094735   1.0000000
B2   B   0.055495920477488   0.777713033197599   0.125127439411896   1.0000000
B2   B   0.388883779386787   0.777713033197599   0.125127439411896   1.0000000
B2   B   0.222274999062767   0.277804166198046   0.124995095905267   1.0000000
B2   B   0.722195833801952   0.777725000937243   0.124995095905268   1.0000000
B2   B   0.555678617505685   0.277917236468064   0.124548902509772   1.0000000
B2   B   0.888934592915260   0.277792174349029   0.125024184414728   1.0000000
B2   B   0.055517094679273   0.444367522691849   0.624907264524389   1.0000000
B2   B   0.222286966802382   0.944504079522517   0.624872560588073   1.0000000
B2   B   0.555632477308144   0.944482905320746   0.624907264524389   1.0000000
B2   B   0.388905285629070   0.444321382494325   0.625451097490198   1.0000000
B2   B   0.888934592915260   0.944475751899532   0.624975815585285   1.0000000
B2   B   0.055517094679273   0.944482905320746   0.125092735475582   1.0000000
B2   B   0.722082763531940   0.444321382494325   0.625451097490198   1.0000000
B2   B   0.388883779386787   0.944504079522517   0.125127439411896   1.0000000
B2   B   0.222233185385546   0.444417249678332   0.125159097248087   1.0000000
B2   B   0.222286966802382   0.611116220613231   0.125127439411896   1.0000000
B2   B   0.555555555555557   0.444444444444443   0.124846915805221   1.0000000
B2   B   0.722207825651022   0.944475751899532   0.125024184414728   1.0000000
B2   B   0.888850730959455   0.444417249678332   0.125159097248087   1.0000000
B2   B   0.055495920477488   0.611116220613231   0.624872560588073   1.0000000
B2   B   0.222233185385546   0.111149269040567   0.624840902751897   1.0000000
B2   B   0.722082763531940   0.611094714370945   0.625451097490198   1.0000000
B2   B   0.555582750321733   0.111149269040567   0.624840902751897   1.0000000
B2   B   0.888888888888886   0.111111111111114   0.625028700874646   1.0000000


