data_1
_audit_creation_method   'vasp2cif'
_cell_length_a    14.93631414619966
_cell_length_b    14.936314146199727
_cell_length_c    13.341276283792837
_cell_angle_alpha    90.0
_cell_angle_beta    90.0
_cell_angle_gamma    119.99999999999984

_symmetry_space_group_name_H-M    'P 1'
loop_
_atom_site_label
_atom_site_type_symbol
_atom_site_fract_x
_atom_site_fract_y
_atom_site_fract_z
_atom_site_occupancy
P2   P   0.492528779721068   0.412931056527198   0.375000000000000   1.0000000
N2   N   0.111076022889822   0.055526210546469   0.125063251510558   1.0000000
N2   N   0.611094033007046   0.555570341050513   0.123889038176991   1.0000000
N2   N   0.444439395291363   0.055549146515936   0.125043639712958   1.0000000
N2   N   0.944407415029573   0.555540524165627   0.125040958219152   1.0000000
N2   N   0.777776005698389   0.055554669515859   0.125015890576030   1.0000000
N2   N   0.111086739012253   0.722210036172794   0.624982931850027   1.0000000
N2   N   0.444439395291363   0.722223582108755   0.624956360287042   1.0000000
N2   N   0.277710819470941   0.222184822474331   0.625384796523591   1.0000000
N2   N   0.777736613428856   0.722196954090191   0.625007126706942   1.0000000
N2   N   0.611093058206411   0.222207870295130   0.625082101166574   1.0000000
N2   N   0.944424615443398   0.222217387289184   0.624970879948915   1.0000000
N2   N   0.277768153750459   0.722220541970842   0.125020124732616   1.0000000
N2   N   0.111063726472348   0.222198529902835   0.125007781947333   1.0000000
N2   N   0.444425484773009   0.222209602579270   0.124491088632016   1.0000000
N2   N   0.611093058206411   0.722218521244610   0.124917898833426   1.0000000
N2   N   0.944407415029573   0.722200224197282   0.125040958219152   1.0000000
N2   N   0.777764689272187   0.222216834519797   0.125057293706779   1.0000000
N2   N   0.111086533977972   0.888869847941528   0.624987565460466   1.0000000
N2   N   0.444445171218977   0.888889252276153   0.624977713408311   1.0000000
N2   N   0.277710819470941   0.388859330329938   0.625384796523591   1.0000000
N2   N   0.611094033007046   0.388857025289855   0.626110961823009   1.0000000
N2   N   0.777764689272187   0.888881188085711   0.624942706293221   1.0000000
N2   N   0.944415785845370   0.388885036620682   0.624943113954863   1.0000000
N2   N   0.111076022889822   0.388883145676674   0.125063251510558   1.0000000
N2   N   0.277768153750459   0.888880945112938   0.125020124732616   1.0000000
N2   N   0.611110589906810   0.888892653524028   0.125039312547055   1.0000000
N2   N   0.444263389619979   0.388798361476657   0.122651339616163   1.0000000
N2   N   0.944415785845370   0.888864082558017   0.125056886045137   1.0000000
N2   N   0.777736613428856   0.388872992671994   0.124992873293058   1.0000000
N2   N   0.277760615363793   0.555552639886557   0.624999979449318   1.0000000
N2   N   0.111076022889822   0.055526210546469   0.624936748489449   1.0000000
N2   N   0.611094033007046   0.555570341050513   0.626110961823009   1.0000000
N2   N   0.444439395291363   0.055549146515936   0.624956360287042   1.0000000
N2   N   0.944407415029573   0.555540524165627   0.624959041780848   1.0000000
N2   N   0.111086533977972   0.555550019369779   0.125012434539534   1.0000000
N2   N   0.777776005698389   0.055554669515859   0.624984109423970   1.0000000
N2   N   0.277760615363793   0.055541308810571   0.125000020550682   1.0000000
N2   N   0.444425484773009   0.555549215527074   0.124491088632016   1.0000000
N2   N   0.777732349585576   0.555532841459456   0.124842419939937   1.0000000
N2   N   0.611110589906810   0.055551269716110   0.125039312547055   1.0000000
N2   N   0.444425484773009   0.555549215527074   0.625508911367984   1.0000000
N2   N   0.944424615443398   0.055540561487550   0.125029120051085   1.0000000
N2   N   0.277768153750459   0.722220541970842   0.624979875267384   1.0000000
N2   N   0.111063726472348   0.222198529902835   0.624992218052667   1.0000000
N2   N   0.444425484773009   0.222209602579270   0.625508911367984   1.0000000
N2   N   0.611093058206411   0.722218521244610   0.625082101166574   1.0000000
N2   N   0.944407415029573   0.722200224197282   0.624959041780848   1.0000000
N2   N   0.777764689272187   0.222216834519797   0.624942706293221   1.0000000
N2   N   0.111086739012253   0.722210036172794   0.125017068149973   1.0000000
N2   N   0.444439395291363   0.722223582108755   0.125043639712958   1.0000000
N2   N   0.277710819470941   0.222184822474331   0.124615203476409   1.0000000
N2   N   0.777736613428856   0.722196954090191   0.124992873293058   1.0000000
N2   N   0.611093058206411   0.222207870295130   0.124917898833426   1.0000000
N2   N   0.944424615443398   0.222217387289184   0.125029120051085   1.0000000
N2   N   0.111076022889822   0.388883145676674   0.624936748489449   1.0000000
N2   N   0.277768153750459   0.888880945112938   0.624979875267384   1.0000000
N2   N   0.611110589906810   0.888892653524028   0.624960687452944   1.0000000
N2   N   0.444263389619979   0.388798361476657   0.627348660383837   1.0000000
N2   N   0.944415785845370   0.888864082558017   0.624943113954863   1.0000000
N2   N   0.111086533977972   0.888869847941528   0.125012434539534   1.0000000
N2   N   0.777736613428856   0.388872992671994   0.625007126706942   1.0000000
N2   N   0.444445171218977   0.888889252276153   0.125022286591688   1.0000000
N2   N   0.277710819470941   0.388859330329938   0.124615203476409   1.0000000
N2   N   0.277760615363793   0.555552639886557   0.125000020550682   1.0000000
N2   N   0.611094033007046   0.388857025289855   0.123889038176991   1.0000000
N2   N   0.777764689272187   0.888881188085711   0.125057293706779   1.0000000
N2   N   0.944415785845370   0.388885036620682   0.125056886045137   1.0000000
N2   N   0.111086533977972   0.555550019369779   0.624987565460466   1.0000000
N2   N   0.277760615363793   0.055541308810571   0.624999979449318   1.0000000
N2   N   0.777732349585576   0.555532841459456   0.625157580060063   1.0000000
N2   N   0.611110589906810   0.055551269716110   0.624960687452944   1.0000000
N2   N   0.944424615443398   0.055540561487550   0.624970879948915   1.0000000
N2   N   0.059260059546349   0.113257927018536   0.375000000000000   1.0000000
N2   N   0.555329500660547   0.617168139364413   0.375000000000000   1.0000000
N2   N   0.388829262830802   0.108018599807210   0.375000000000000   1.0000000
N2   N   0.885972140118630   0.609652736725986   0.375000000000000   1.0000000
N2   N   0.724280390508607   0.111634443765683   0.375000000000000   1.0000000
N2   N   0.055530207830456   0.777765785347623   0.875000000000000   1.0000000
N2   N   0.388860965188580   0.777766956079157   0.875000000000000   1.0000000
N2   N   0.222194655362822   0.277763994348079   0.875000000000000   1.0000000
N2   N   0.722195996885612   0.777766343336064   0.875000000000000   1.0000000
N2   N   0.555525841771756   0.277758625468952   0.875000000000000   1.0000000
N2   N   0.888865356063659   0.277765852401139   0.875000000000000   1.0000000
N2   N   0.221300005321704   0.777316669327520   0.375000000000000   1.0000000
N2   N   0.059260059546349   0.279335465861149   0.375000000000000   1.0000000
N2   N   0.397211992607524   0.279615971527101   0.375000000000000   1.0000000
N2   N   0.556323456502519   0.780744021383934   0.375000000000000   1.0000000
N2   N   0.887861403906868   0.777226617151543   0.375000000000000   1.0000000
N2   N   0.723425425267422   0.277143674023983   0.375000000000000   1.0000000
N2   N   0.055527726580834   0.944429984456850   0.875000000000000   1.0000000
N2   N   0.388860965188580   0.944427342442759   0.875000000000000   1.0000000
N2   N   0.222191843169274   0.444433346746897   0.875000000000000   1.0000000
N2   N   0.555532996786238   0.444433165059783   0.875000000000000   1.0000000
N2   N   0.722194268199189   0.944431525956141   0.875000000000000   1.0000000
N2   N   0.888867077799193   0.444432560033675   0.875000000000000   1.0000000
N2   N   0.056887234101618   0.444841015724019   0.375000000000000   1.0000000
N2   N   0.221846061638307   0.943636919593599   0.375000000000000   1.0000000
N2   N   0.556485610692374   0.944909472012851   0.375000000000000   1.0000000
N2   N   0.397211992607524   0.450929354413759   0.375000000000000   1.0000000
N2   N   0.891120852981191   0.946009919376889   0.375000000000000   1.0000000
N2   N   0.717674347080049   0.442497595742711   0.375000000000000   1.0000000
N2   N   0.222191858901749   0.611098938969164   0.875000000000000   1.0000000
N2   N   0.055529069899405   0.111096865361454   0.875000000000000   1.0000000
N2   N   0.555525841771756   0.611100549636133   0.875000000000000   1.0000000
N2   N   0.388857655331922   0.111087461993837   0.875000000000000   1.0000000
N2   N   0.888870862660436   0.611102097996890   0.875000000000000   1.0000000
N2   N   0.054215802903274   0.610569770030370   0.375000000000000   1.0000000
N2   N   0.722194268199189   0.111096075576384   0.875000000000000   1.0000000
N2   N   0.226325727212350   0.113615260747726   0.375000000000000   1.0000000
N2   N   0.388829262830802   0.614143996356935   0.375000000000000   1.0000000
N2   N   0.717674347080049   0.608510084670674   0.375000000000000   1.0000000
N2   N   0.556323456502519   0.108912768451921   0.375000000000000   1.0000000
N2   N   0.388857655331922   0.611103526671420   0.875000000000000   1.0000000
N2   N   0.891867194964198   0.112600264148770   0.375000000000000   1.0000000
N2   N   0.222193936814958   0.777763635074143   0.875000000000000   1.0000000
N2   N   0.055529069899405   0.277765537871287   0.875000000000000   1.0000000
N2   N   0.388860006680685   0.277754776587279   0.875000000000000   1.0000000
N2   N   0.555525766319056   0.777766585619719   0.875000000000000   1.0000000
N2   N   0.888867077799193   0.777767851098853   0.875000000000000   1.0000000
N2   N   0.722195996885612   0.277762986882884   0.875000000000000   1.0000000
N2   N   0.054215802903274   0.776979366206239   0.375000000000000   1.0000000
N2   N   0.388718395005368   0.778677791465713   0.375000000000000   1.0000000
N2   N   0.228031036916683   0.280682185125006   0.375000000000000   1.0000000
N2   N   0.723425425267422   0.779615084576776   0.375000000000000   1.0000000
N2   N   0.555329500660547   0.271494694629470   0.375000000000000   1.0000000
N2   N   0.891120852981191   0.278444266937631   0.375000000000000   1.0000000
N2   N   0.055527726580834   0.444431075457313   0.875000000000000   1.0000000
N2   N   0.222191858901749   0.944426253265927   0.875000000000000   1.0000000
N2   N   0.555526194499659   0.944429763916490   0.875000000000000   1.0000000
N2   N   0.388860006680685   0.444438563426749   0.875000000000000   1.0000000
N2   N   0.888865356063659   0.944432836995856   0.875000000000000   1.0000000
N2   N   0.056887234101618   0.945379551710927   0.375000000000000   1.0000000
N2   N   0.722202561208526   0.444434617721302   0.875000000000000   1.0000000
N2   N   0.388718395005368   0.943373936872991   0.375000000000000   1.0000000
N2   N   0.226325727212350   0.446043799797959   0.375000000000000   1.0000000
N2   N   0.221846061638307   0.611542475378044   0.375000000000000   1.0000000
N2   N   0.724280390508607   0.945979280076267   0.375000000000000   1.0000000
N2   N   0.887861403906868   0.443968120088661   0.375000000000000   1.0000000
N2   N   0.055530207830456   0.611097755816168   0.875000000000000   1.0000000
N2   N   0.222191843169274   0.111091829755712   0.875000000000000   1.0000000
N2   N   0.722202561208526   0.611101276820561   0.875000000000000   1.0000000
N2   N   0.555525766319056   0.111092514032673   0.875000000000000   1.0000000
N2   N   0.888864027823309   0.111098680578329   0.875000000000000   1.0000000
B2   B   0.114451804004099   0.057428929489165   0.375000000000000   1.0000000
B2   B   0.606447132154810   0.559233725225460   0.375000000000000   1.0000000
B2   B   0.445065772000393   0.053748562914555   0.375000000000000   1.0000000
B2   B   0.942805100214324   0.554994437341362   0.375000000000000   1.0000000
B2   B   0.780508453907228   0.056920893620279   0.375000000000000   1.0000000
B2   B   0.111083223825127   0.722208278579231   0.875000000000000   1.0000000
B2   B   0.444415740789373   0.722205898004165   0.875000000000000   1.0000000
B2   B   0.277765964156021   0.222215795094229   0.875000000000000   1.0000000
B2   B   0.777744124107808   0.722197189332690   0.875000000000000   1.0000000
B2   B   0.611076134682410   0.222214534075463   0.875000000000000   1.0000000
B2   B   0.944420816749957   0.222211420490565   0.875000000000000   1.0000000
B2   B   0.277449492103377   0.722524471235120   0.375000000000000   1.0000000
B2   B   0.116096773855140   0.224715053594234   0.375000000000000   1.0000000
B2   B   0.445174829492050   0.217881550749505   0.375000000000000   1.0000000
B2   B   0.612740468178205   0.727038841003914   0.375000000000000   1.0000000
B2   B   0.942805100214324   0.721143996206298   0.375000000000000   1.0000000
B2   B   0.780009517367865   0.222623242981415   0.375000000000000   1.0000000
B2   B   0.111084395039433   0.888874738209817   0.875000000000000   1.0000000
B2   B   0.444415910286287   0.888874621809811   0.875000000000000   1.0000000
B2   B   0.277765964156021   0.388883502395120   0.875000000000000   1.0000000
B2   B   0.611072351000625   0.388883828721189   0.875000000000000   1.0000000
B2   B   0.777747422722576   0.888869350965850   0.875000000000000   1.0000000
B2   B   0.944417269751848   0.388878244908579   0.875000000000000   1.0000000
B2   B   0.114451804004099   0.390356207848255   0.375000000000000   1.0000000
B2   B   0.277449492103377   0.888258354201586   0.375000000000000   1.0000000
B2   B   0.612923987509386   0.891005590152638   0.375000000000000   1.0000000
B2   B   0.945315421669258   0.889276072913439   0.375000000000000   1.0000000
B2   B   0.776237015513190   0.388116551422321   0.375000000000000   1.0000000
B2   B   0.277754937597872   0.555543960996682   0.875000000000000   1.0000000
B2   B   0.111089809022848   0.055543733289111   0.875000000000000   1.0000000
B2   B   0.611072351000625   0.555521855612764   0.875000000000000   1.0000000
B2   B   0.444415740789373   0.055543176118543   0.875000000000000   1.0000000
B2   B   0.944415739501417   0.555543050963490   0.875000000000000   1.0000000
B2   B   0.110802591749527   0.555791141136336   0.375000000000000   1.0000000
B2   B   0.777749349619815   0.055541341476579   0.875000000000000   1.0000000
B2   B   0.278333001306383   0.054675350668088   0.375000000000000   1.0000000
B2   B   0.445174829492050   0.560626612075887   0.375000000000000   1.0000000
B2   B   0.774105939335161   0.553719636334252   0.375000000000000   1.0000000
B2   B   0.612923987509386   0.055251730690076   0.375000000000000   1.0000000
B2   B   0.444419494303309   0.555539264583125   0.875000000000000   1.0000000
B2   B   0.947763322209910   0.057396123460195   0.375000000000000   1.0000000
B2   B   0.277751153152378   0.722208605412835   0.875000000000000   1.0000000
B2   B   0.111095666691896   0.222214500012613   0.875000000000000   1.0000000
B2   B   0.444419494303309   0.222213563053519   0.875000000000000   1.0000000
B2   B   0.611076134682410   0.722194933940276   0.875000000000000   1.0000000
B2   B   0.944415739501417   0.722206021871263   0.875000000000000   1.0000000
B2   B   0.777747422722576   0.222211405090054   0.875000000000000   1.0000000
B2   B   0.110023236604106   0.721678284968721   0.375000000000000   1.0000000
B2   B   0.445065772000393   0.724650542419173   0.375000000000000   1.0000000
B2   B   0.284980543434221   0.226405731511283   0.375000000000000   1.0000000
B2   B   0.776237015513190   0.721453797424198   0.375000000000000   1.0000000
B2   B   0.612740468178205   0.219034960507626   0.375000000000000   1.0000000
B2   B   0.947763322209910   0.223700532083051   0.375000000000000   1.0000000
B2   B   0.111089809022848   0.388879409067073   0.875000000000000   1.0000000
B2   B   0.277751153152378   0.888875881072872   0.875000000000000   1.0000000
B2   B   0.611079799274687   0.888871401949153   0.875000000000000   1.0000000
B2   B   0.444436364136585   0.388884848734953   0.875000000000000   1.0000000
B2   B   0.944417269751848   0.888872358176598   0.875000000000000   1.0000000
B2   B   0.110802591749527   0.888344783946526   0.375000000000000   1.0000000
B2   B   0.777744124107808   0.388880268108440   0.875000000000000   1.0000000
B2   B   0.445050961333659   0.889192147333494   0.375000000000000   1.0000000
B2   B   0.284980543434221   0.391908145256266   0.375000000000000   1.0000000
B2   B   0.278333001306383   0.556990983971623   0.375000000000000   1.0000000
B2   B   0.606447132154810   0.380546740262686   0.375000000000000   1.0000000
B2   B   0.780009517367865   0.890719607719779   0.375000000000000   1.0000000
B2   B   0.945315421669258   0.389372682089148   0.375000000000000   1.0000000
B2   B   0.111084395039433   0.555542990162945   0.875000000000000   1.0000000
B2   B   0.277754937597872   0.055544309934526   0.875000000000000   1.0000000
B2   B   0.777743973559225   0.555538653446281   0.875000000000000   1.0000000
B2   B   0.611079799274687   0.055541730658856   0.875000000000000   1.0000000
B2   B   0.944420816749957   0.055542729592727   0.875000000000000   1.0000000
B2   B   0.055538845435488   0.111098687468444   0.125009901138297   1.0000000
B2   B   0.555539176063922   0.611055956924029   0.124472627965371   1.0000000
B2   B   0.388894234381791   0.111143195533594   0.124891915480371   1.0000000
B2   B   0.888810953798895   0.611072143566119   0.124974052168617   1.0000000
B2   B   0.722214548178759   0.111107551960262   0.125005320302937   1.0000000
B2   B   0.055522635323922   0.777759683301275   0.624995937675343   1.0000000
B2   B   0.388887198524156   0.777772453444551   0.624993452840350   1.0000000
B2   B   0.222195868655267   0.277764600994305   0.625265970227080   1.0000000
B2   B   0.722182569735825   0.777750802049528   0.625039720045927   1.0000000
B2   B   0.555539176063922   0.277816552473229   0.625527372034629   1.0000000
B2   B   0.888869391654287   0.277773679198879   0.624987043191903   1.0000000
B2   B   0.222207466661448   0.777770399997392   0.124998371740515   1.0000000
B2   B   0.055538845435488   0.277773491300380   0.125009901138297   1.0000000
B2   B   0.388857217115396   0.277801967105779   0.123981419897856   1.0000000
B2   B   0.555549673307135   0.777766355285228   0.124995625486392   1.0000000
B2   B   0.888837592260575   0.777745068701659   0.125012755498822   1.0000000
B2   B   0.722182569735825   0.277765101019633   0.124960279954073   1.0000000
B2   B   0.055530459718729   0.944424858013969   0.624975239955789   1.0000000
B2   B   0.388887198524156   0.944448078412948   0.624993452840350   1.0000000
B2   B   0.222202327116677   0.444430147252352   0.625046937302551   1.0000000
B2   B   0.555432946839470   0.444383140086399   0.625446007700920   1.0000000
B2   B   0.722214548178759   0.944440329551833   0.624994679697063   1.0000000
B2   B   0.888837592260575   0.444425856892252   0.624987244501177   1.0000000
B2   B   0.055530459718729   0.444438935038096   0.125024760044211   1.0000000
B2   B   0.222211975167811   0.944444761361096   0.125003170783071   1.0000000
B2   B   0.555555308635407   0.944444320984364   0.125007244039354   1.0000000
B2   B   0.388857217115396   0.444388583342953   0.123981419897856   1.0000000
B2   B   0.888869391654287   0.944429045788751   0.125012956808097   1.0000000
B2   B   0.722097396910797   0.444393005695366   0.124584097602747   1.0000000
B2   B   0.222211975167811   0.611100547140050   0.624996829216929   1.0000000
B2   B   0.055538845435488   0.111098687468444   0.624990098861703   1.0000000
B2   B   0.555539176063922   0.611055956924029   0.625527372034629   1.0000000
B2   B   0.388894234381791   0.111143195533594   0.625108084519629   1.0000000
B2   B   0.888810953798895   0.611072143566119   0.625025947831382   1.0000000
B2   B   0.055522635323922   0.611096285355975   0.125004062324657   1.0000000
B2   B   0.722214548178759   0.111107551960262   0.624994679697063   1.0000000
B2   B   0.222202327116677   0.111105513197661   0.124953062697449   1.0000000
B2   B   0.388894234381791   0.611084372181540   0.124891915480371   1.0000000
B2   B   0.722097396910797   0.611037724548767   0.124584097602747   1.0000000
B2   B   0.555549673307135   0.111116651355242   0.124995625486392   1.0000000
B2   B   0.388894234381791   0.611084372181540   0.625108084519629   1.0000000
B2   B   0.888879805714831   0.111106569524087   0.124996631895504   1.0000000
B2   B   0.222207466661448   0.777770399997392   0.625001628259485   1.0000000
B2   B   0.055538845435488   0.277773491300380   0.624990098861703   1.0000000
B2   B   0.388857217115396   0.277801967105779   0.626018580102145   1.0000000
B2   B   0.555549673307135   0.777766355285228   0.625004374513607   1.0000000
B2   B   0.888837592260575   0.777745068701659   0.624987244501177   1.0000000
B2   B   0.722182569735825   0.277765101019633   0.625039720045927   1.0000000
B2   B   0.055522635323922   0.777759683301275   0.125004062324657   1.0000000
B2   B   0.388887198524156   0.777772453444551   0.125006547159650   1.0000000
B2   B   0.222195868655267   0.277764600994305   0.124734029772920   1.0000000
B2   B   0.722182569735825   0.777750802049528   0.124960279954073   1.0000000
B2   B   0.555539176063922   0.277816552473229   0.124472627965371   1.0000000
B2   B   0.888869391654287   0.277773679198879   0.125012956808097   1.0000000
B2   B   0.055530459718729   0.444438935038096   0.624975239955789   1.0000000
B2   B   0.222211975167811   0.944444761361096   0.624996829216929   1.0000000
B2   B   0.555555308635407   0.944444320984364   0.624992755960646   1.0000000
B2   B   0.388857217115396   0.444388583342953   0.626018580102145   1.0000000
B2   B   0.888869391654287   0.944429045788751   0.624987043191903   1.0000000
B2   B   0.055530459718729   0.944424858013969   0.125024760044211   1.0000000
B2   B   0.722097396910797   0.444393005695366   0.625415902397253   1.0000000
B2   B   0.388887198524156   0.944448078412948   0.125006547159650   1.0000000
B2   B   0.222202327116677   0.444430147252352   0.124953062697449   1.0000000
B2   B   0.222211975167811   0.611100547140050   0.125003170783071   1.0000000
B2   B   0.555432946839470   0.444383140086399   0.124553992299080   1.0000000
B2   B   0.722214548178759   0.944440329551833   0.125005320302937   1.0000000
B2   B   0.888837592260575   0.444425856892252   0.125012755498822   1.0000000
B2   B   0.055522635323922   0.611096285355975   0.624995937675343   1.0000000
B2   B   0.222202327116677   0.111105513197661   0.625046937302551   1.0000000
B2   B   0.722097396910797   0.611037724548767   0.625415902397253   1.0000000
B2   B   0.555549673307135   0.111116651355242   0.625004374513607   1.0000000
B2   B   0.888879805714831   0.111106569524087   0.625003368104496   1.0000000


