data_1
_audit_creation_method   'vasp2cif'
_cell_length_a    17.52789999999977
_cell_length_b    17.52789999999977
_cell_length_c    15.0
_cell_angle_alpha    90.0
_cell_angle_beta    90.0
_cell_angle_gamma    119.99999999999916

_symmetry_space_group_name_H-M    'P 1'
loop_
_atom_site_label
_atom_site_type_symbol
_atom_site_fract_x
_atom_site_fract_y
_atom_site_fract_z
_atom_site_occupancy
Sb2   Sb   0.500875102985882   0.499126298931061   0.110863205239905   1.0000000
B2   B   0.906440278578346   0.953896671970604   0.110943929184892   1.0000000
B2   B   0.904267949975988   0.095734071220020   0.110904908486125   1.0000000
B2   B   0.903593903543288   0.238388993320846   0.110952863814407   1.0000000
B2   B   0.903872898771762   0.381231185929820   0.110925987952203   1.0000000
B2   B   0.905941195556826   0.524329064994148   0.110990736464535   1.0000000
B2   B   0.908381882433183   0.668080983555312   0.111039940411564   1.0000000
B2   B   0.909390371670033   0.812511373623435   0.111025759289988   1.0000000
B2   B   0.048430498837856   0.951571522358121   0.110974396042496   1.0000000
B2   B   0.046105349225415   0.093561742617660   0.110943929184892   1.0000000
B2   B   0.045508102404351   0.236921829373404   0.110940579263292   1.0000000
B2   B   0.046196231699055   0.380285323532854   0.111003116065671   1.0000000
B2   B   0.048084011380869   0.523309936197030   0.111021902563021   1.0000000
B2   B   0.049624821167061   0.666271805764215   0.111082218344304   1.0000000
B2   B   0.049791534649267   0.809220264363834   0.111042206179893   1.0000000
B2   B   0.190781756832140   0.950210486546709   0.111042206179893   1.0000000
B2   B   0.187490647572543   0.090611649525923   0.111025759289988   1.0000000
B2   B   0.185593301437381   0.233077686588309   0.111009828620577   1.0000000
B2   B   0.187374543922817   0.378494008691857   0.111134639333162   1.0000000
B2   B   0.190390543290911   0.522332690316478   0.111193165445053   1.0000000
B2   B   0.192109864652095   0.665374764236220   0.111128528268976   1.0000000
B2   B   0.191914037462402   0.808087983733600   0.111067555827231   1.0000000
B2   B   0.333730215432721   0.950377200028961   0.111082218344304   1.0000000
B2   B   0.331921037641612   0.091620138762763   0.111039940411564   1.0000000
B2   B   0.325545899631133   0.228478119595710   0.111006048683010   1.0000000
B2   B   0.324276002824071   0.372663276296032   0.111129007999739   1.0000000
B2   B   0.332616829986940   0.520310645450201   0.111324189859078   1.0000000
B2   B   0.335330398692582   0.664671622504427   0.111265435717056   1.0000000
B2   B   0.334627256960777   0.807892156543915   0.111128528268976   1.0000000
B2   B   0.476692085000024   0.951918009815124   0.111021902563021   1.0000000
B2   B   0.475672956202851   0.094060825639128   0.110990736464535   1.0000000
B2   B   0.473714003329608   0.235116026761327   0.110935189522926   1.0000000
B2   B   0.460941975731378   0.364995172219041   0.111054528597977   1.0000000
B2   B   0.479691375746795   0.667385191210035   0.111324189859078   1.0000000
B2   B   0.477669330880492   0.809611477905053   0.111193165445053   1.0000000
B2   B   0.619716697663160   0.953805789496936   0.111003116065671   1.0000000
B2   B   0.618770835266146   0.096129122424219   0.110925987952203   1.0000000
B2   B   0.617943921724440   0.239063346701579   0.110942749829771   1.0000000
B2   B   0.616968465391036   0.383033555804968   0.110904404184371   1.0000000
B2   B   0.635006848976992   0.539060045465590   0.111054528597977   1.0000000
B2   B   0.627338744900004   0.675726018372928   0.111129007999739   1.0000000
B2   B   0.621508012504191   0.812627477273192   0.111134639333162   1.0000000
B2   B   0.763080191822650   0.954493918791703   0.110940579263292   1.0000000
B2   B   0.761613027875175   0.096408117652725   0.110952863814407   1.0000000
B2   B   0.760975377950487   0.239026643245553   0.110973327107742   1.0000000
B2   B   0.760938674494457   0.382058099471533   0.110942749829771   1.0000000
B2   B   0.764885994434668   0.526288017867416   0.110935189522926   1.0000000
B2   B   0.771523901600266   0.674456121565893   0.111006048683010   1.0000000
B2   B   0.766924334607742   0.814408719758613   0.111009828620577   1.0000000
N2   N   0.954505680470654   0.906420156885304   0.110939571234182   1.0000000
N2   N   0.951955341638082   0.048046060279926   0.110883506236398   1.0000000
N2   N   0.950868521434432   0.190472936623535   0.110885229655146   1.0000000
N2   N   0.951083465739507   0.333367551591889   0.110910146988248   1.0000000
N2   N   0.952728406826896   0.476273118729995   0.110920852799822   1.0000000
N2   N   0.954594796687562   0.619394589717042   0.111027196323583   1.0000000
N2   N   0.955300617393551   0.763022918154508   0.111010717585673   1.0000000
N2   N   0.096156051985467   0.903845349932495   0.110978646913181   1.0000000
N2   N   0.093581245032619   0.045495721447299   0.110939571234182   1.0000000
N2   N   0.091750936346932   0.187839609934217   0.110914670973784   1.0000000
N2   N   0.092686422157975   0.331882869619221   0.110994955670956   1.0000000
N2   N   0.095005200003164   0.475358353677415   0.111040673325151   1.0000000
N2   N   0.096745063379767   0.618353617770591   0.111050740865952   1.0000000
N2   N   0.097000240302552   0.761207292199156   0.111041769351036   1.0000000
N2   N   0.238794109718858   0.903001161615405   0.111041769351036   1.0000000
N2   N   0.236978483763493   0.044700784524410   0.111010717585673   1.0000000
N2   N   0.232155852808844   0.184105402500823   0.110996975318392   1.0000000
N2   N   0.231102074397992   0.327314341498600   0.111058649611660   1.0000000
N2   N   0.236713341285805   0.473894973243789   0.111233074446814   1.0000000
N2   N   0.239574230840621   0.617618783178120   0.111195155125313   1.0000000
N2   N   0.239505793690546   0.760495608227426   0.111081958141671   1.0000000
N2   N   0.381647784147446   0.903256338538229   0.111050740865952   1.0000000
N2   N   0.380606812200939   0.045406605230450   0.111027196323583   1.0000000
N2   N   0.378173615943627   0.186150706990318   0.110954939469563   1.0000000
N2   N   0.369093423158738   0.321033833229275   0.110991634079069   1.0000000
N2   N   0.371904972777500   0.466070720231971   0.111231006782082   1.0000000
N2   N   0.383213651571646   0.616787750346343   0.111328629990368   1.0000000
N2   N   0.382382618739930   0.760427171077428   0.111195155125313   1.0000000
N2   N   0.524643048239545   0.904996201914827   0.111040673325151   1.0000000
N2   N   0.523728283187025   0.047272995091090   0.110920852799822   1.0000000
N2   N   0.522649144683053   0.189422135631541   0.110914685099736   1.0000000
N2   N   0.519963274566392   0.330851577597332   0.110892660845768   1.0000000
N2   N   0.533930681685063   0.628096429140470   0.111231006782082   1.0000000
N2   N   0.526106428673205   0.763288060632190   0.111233074446814   1.0000000
N2   N   0.668118532297753   0.907314979759992   0.110994955670956   1.0000000
N2   N   0.666633850325125   0.048917936178477   0.110910146988248   1.0000000
N2   N   0.665794971766123   0.191599795141090   0.110907292790044   1.0000000
N2   N   0.664924516120849   0.335076885796075   0.110887137049629   1.0000000
N2   N   0.669149824319619   0.480038127350603   0.110892660845768   1.0000000
N2   N   0.678967568687698   0.630907978759318   0.110991634079069   1.0000000
N2   N   0.672687060418355   0.768899327520009   0.111058649611660   1.0000000
N2   N   0.812161791983744   0.908250465571077   0.110914670973776   1.0000000
N2   N   0.809528465294440   0.049132880483557   0.110885229655146   1.0000000
N2   N   0.808585664487409   0.191415737430552   0.110943307313875   1.0000000
N2   N   0.808401606776929   0.334206430150851   0.110907292790044   1.0000000
N2   N   0.810579266286486   0.477352257233941   0.110914685099736   1.0000000
N2   N   0.813850694927708   0.621827785974353   0.110954939469563   1.0000000
N2   N   0.815895999417183   0.767845549109222   0.110996975318392   1.0000000


