data_1
_audit_creation_method   'vasp2cif'
_cell_length_a    14.93631414619966
_cell_length_b    14.936314146199727
_cell_length_c    13.341276283792837
_cell_angle_alpha    90.0
_cell_angle_beta    90.0
_cell_angle_gamma    119.99999999999984

_symmetry_space_group_name_H-M    'P 1'
loop_
_atom_site_label
_atom_site_type_symbol
_atom_site_fract_x
_atom_site_fract_y
_atom_site_fract_z
_atom_site_occupancy
As2   As   0.486040311836030   0.409686822584679   0.375000000000000   1.0000000
N2   N   0.111045837837564   0.055507193797231   0.125029036206731   1.0000000
N2   N   0.611005250862073   0.555500940696189   0.124679174277992   1.0000000
N2   N   0.444418464985744   0.055533174609831   0.125065987985214   1.0000000
N2   N   0.944387472762813   0.555533829485943   0.125066368800745   1.0000000
N2   N   0.777751305216370   0.055542319274853   0.124997884182416   1.0000000
N2   N   0.111073386525029   0.722203359929179   0.624981251954695   1.0000000
N2   N   0.444418464985744   0.722218623709248   0.624934012014787   1.0000000
N2   N   0.277668446332594   0.222154584048968   0.625540460940530   1.0000000
N2   N   0.777704928133275   0.722170839870184   0.624852993369886   1.0000000
N2   N   0.611058976054525   0.222191712495817   0.624969817936995   1.0000000
N2   N   0.944397823879671   0.222206243995174   0.625006703277021   1.0000000
N2   N   0.277753882192121   0.722215531573527   0.125014221461861   1.0000000
N2   N   0.111037710475173   0.222185521904251   0.125001049701804   1.0000000
N2   N   0.444381756091156   0.222183022195745   0.124495658517922   1.0000000
N2   N   0.611058976054525   0.722200596892039   0.125030182063005   1.0000000
N2   N   0.944387472762813   0.722186976610205   0.125066368800745   1.0000000
N2   N   0.777739434394326   0.222209337694605   0.125029094375398   1.0000000
N2   N   0.111068229655525   0.888857078630562   0.624990003679486   1.0000000
N2   N   0.444430524284844   0.888881928809087   0.624984713704075   1.0000000
N2   N   0.277668446332594   0.388847195616955   0.625540460940530   1.0000000
N2   N   0.611005250862073   0.388837643499213   0.625320825722008   1.0000000
N2   N   0.777739434394326   0.888863430033049   0.624970905624602   1.0000000
N2   N   0.944391216760584   0.388877307760782   0.624980517336918   1.0000000
N2   N   0.111045837837564   0.388871977373662   0.125029036206731   1.0000000
N2   N   0.277753882192121   0.888871683951923   0.125014221461861   1.0000000
N2   N   0.611091088218103   0.888884498110680   0.125010121667870   1.0000000
N2   N   0.444211797497158   0.388772565415243   0.122141672527889   1.0000000
N2   N   0.944391216760584   0.888847242333131   0.125019482663082   1.0000000
N2   N   0.777704928133275   0.388867421596419   0.125147006630113   1.0000000
N2   N   0.277733107420380   0.555545247327343   0.625003547191540   1.0000000
N2   N   0.111045837837564   0.055507193797231   0.624970963793269   1.0000000
N2   N   0.611005250862073   0.555500940696189   0.625320825722008   1.0000000
N2   N   0.444418464985744   0.055533174609831   0.624934012014787   1.0000000
N2   N   0.944387472762813   0.555533829485943   0.624933631199255   1.0000000
N2   N   0.111068229655525   0.555544484358292   0.125009996320514   1.0000000
N2   N   0.777751305216370   0.055542319274853   0.625002115817585   1.0000000
N2   N   0.277733107420380   0.055521193426372   0.124996452808460   1.0000000
N2   N   0.444381756091156   0.555532067228747   0.124495658517922   1.0000000
N2   N   0.777693501388433   0.555513417360884   0.125199486750510   1.0000000
N2   N   0.611091088218103   0.055539923440751   0.125010121667870   1.0000000
N2   N   0.444381756091156   0.555532067228747   0.625504341482080   1.0000000
N2   N   0.944397823879671   0.055524913217834   0.124993296722978   1.0000000
N2   N   0.277753882192121   0.722215531573527   0.624985778538139   1.0000000
N2   N   0.111037710475173   0.222185521904251   0.624998950298196   1.0000000
N2   N   0.444381756091156   0.222183022195745   0.625504341482080   1.0000000
N2   N   0.611058976054525   0.722200596892039   0.624969817936995   1.0000000
N2   N   0.944387472762813   0.722186976610205   0.624933631199255   1.0000000
N2   N   0.777739434394326   0.222209337694605   0.624970905624602   1.0000000
N2   N   0.111073386525029   0.722203359929179   0.125018748045306   1.0000000
N2   N   0.444418464985744   0.722218623709248   0.125065987985214   1.0000000
N2   N   0.277668446332594   0.222154584048968   0.124459539059471   1.0000000
N2   N   0.777704928133275   0.722170839870184   0.125147006630113   1.0000000
N2   N   0.611058976054525   0.222191712495817   0.125030182063005   1.0000000
N2   N   0.944397823879671   0.222206243995174   0.124993296722978   1.0000000
N2   N   0.111045837837564   0.388871977373662   0.624970963793269   1.0000000
N2   N   0.277753882192121   0.888871683951923   0.624985778538139   1.0000000
N2   N   0.611091088218103   0.888884498110680   0.624989878332130   1.0000000
N2   N   0.444211797497158   0.388772565415243   0.627858327472111   1.0000000
N2   N   0.944391216760584   0.888847242333131   0.624980517336918   1.0000000
N2   N   0.111068229655525   0.888857078630562   0.125009996320514   1.0000000
N2   N   0.777704928133275   0.388867421596419   0.624852993369886   1.0000000
N2   N   0.444430524284844   0.888881928809087   0.125015286295925   1.0000000
N2   N   0.277668446332594   0.388847195616955   0.124459539059471   1.0000000
N2   N   0.277733107420380   0.555545247327343   0.124996452808460   1.0000000
N2   N   0.611005250862073   0.388837643499213   0.124679174277992   1.0000000
N2   N   0.777739434394326   0.888863430033049   0.125029094375398   1.0000000
N2   N   0.944391216760584   0.388877307760782   0.125019482663082   1.0000000
N2   N   0.111068229655525   0.555544484358292   0.624990003679486   1.0000000
N2   N   0.277733107420380   0.055521193426372   0.625003547191540   1.0000000
N2   N   0.777693501388433   0.555513417360884   0.624800513249490   1.0000000
N2   N   0.611091088218103   0.055539923440751   0.624989878332130   1.0000000
N2   N   0.944397823879671   0.055524913217834   0.625006703277021   1.0000000
N2   N   0.056278577057531   0.111566042658366   0.375000000000000   1.0000000
N2   N   0.555275393321004   0.616615569222149   0.375000000000000   1.0000000
N2   N   0.387209863482608   0.105345926023864   0.375000000000000   1.0000000
N2   N   0.886845520488361   0.610089426910850   0.375000000000000   1.0000000
N2   N   0.722668175090809   0.110693228635098   0.375000000000000   1.0000000
N2   N   0.055559818625703   0.777780344899195   0.875000000000000   1.0000000
N2   N   0.388895063545841   0.777781241076526   0.875000000000000   1.0000000
N2   N   0.222225040900072   0.277779187116704   0.875000000000000   1.0000000
N2   N   0.722228416893169   0.777778340735540   0.875000000000000   1.0000000
N2   N   0.555561492925670   0.277783162814970   0.875000000000000   1.0000000
N2   N   0.888895604305816   0.277783039150335   0.875000000000000   1.0000000
N2   N   0.220205183330441   0.776769258331888   0.375000000000000   1.0000000
N2   N   0.056278577057531   0.278045867732501   0.375000000000000   1.0000000
N2   N   0.386518014939422   0.267068660175615   0.375000000000000   1.0000000
N2   N   0.555188893590106   0.780286686353209   0.375000000000000   1.0000000
N2   N   0.888480499831090   0.778137267104494   0.375000000000000   1.0000000
N2   N   0.722640249577027   0.276332929522855   0.375000000000000   1.0000000
N2   N   0.055558366428045   0.944444851545228   0.875000000000000   1.0000000
N2   N   0.388895063545841   0.944447155802651   0.875000000000000   1.0000000
N2   N   0.222223079594175   0.444447153617901   0.875000000000000   1.0000000
N2   N   0.555567903279360   0.444450618306344   0.875000000000000   1.0000000
N2   N   0.722226778032774   0.944445806648962   0.875000000000000   1.0000000
N2   N   0.888896674994889   0.444449024053710   0.875000000000000   1.0000000
N2   N   0.054752113919980   0.444317068433077   0.375000000000000   1.0000000
N2   N   0.220296036800858   0.942290882177307   0.375000000000000   1.0000000
N2   N   0.555146393798762   0.944239863566046   0.375000000000000   1.0000000
N2   N   0.386518014939422   0.452782688097142   0.375000000000000   1.0000000
N2   N   0.889384577470859   0.945254398017654   0.375000000000000   1.0000000
N2   N   0.722122135620839   0.442887783168160   0.375000000000000   1.0000000
N2   N   0.222224535117415   0.611112905875364   0.875000000000000   1.0000000
N2   N   0.055558595317959   0.111111300080710   0.875000000000000   1.0000000
N2   N   0.555561492925670   0.611111663444036   0.875000000000000   1.0000000
N2   N   0.388892582955689   0.111111673678246   0.875000000000000   1.0000000
N2   N   0.888897012427430   0.611115172880387   0.875000000000000   1.0000000
N2   N   0.053648274081170   0.610390975168022   0.375000000000000   1.0000000
N2   N   0.722226778032774   0.111114304717147   0.875000000000000   1.0000000
N2   N   0.220979900041137   0.108955788777241   0.375000000000000   1.0000000
N2   N   0.387209863482608   0.615197270792088   0.375000000000000   1.0000000
N2   N   0.722122135620839   0.612567685786014   0.375000000000000   1.0000000
N2   N   0.555188893590106   0.108235540570234   0.375000000000000   1.0000000
N2   N   0.388892582955689   0.611114242610787   0.875000000000000   1.0000000
N2   N   0.889634048204990   0.111483690769166   0.375000000000000   1.0000000
N2   N   0.222226362869233   0.777779848101284   0.875000000000000   1.0000000
N2   N   0.055558595317959   0.277780628570585   0.875000000000000   1.0000000
N2   N   0.388891703635527   0.277772994278152   0.875000000000000   1.0000000
N2   N   0.555559762302149   0.777778910655649   0.875000000000000   1.0000000
N2   N   0.888896674994889   0.777780984274513   0.875000000000000   1.0000000
N2   N   0.722228416893169   0.277783409490965   0.875000000000000   1.0000000
N2   N   0.053648274081170   0.776590632246484   0.375000000000000   1.0000000
N2   N   0.387395016327871   0.778511465423063   0.375000000000000   1.0000000
N2   N   0.223840282545258   0.278586807939297   0.375000000000000   1.0000000
N2   N   0.722640249577027   0.779640653387507   0.375000000000000   1.0000000
N2   N   0.555275393321004   0.271993157432191   0.375000000000000   1.0000000
N2   N   0.889384577470859   0.277463512786540   0.375000000000000   1.0000000
N2   N   0.055558366428045   0.444446848216146   0.875000000000000   1.0000000
N2   N   0.222224535117415   0.944444962575385   0.875000000000000   1.0000000
N2   N   0.555559801378583   0.944446567355956   0.875000000000000   1.0000000
N2   N   0.388891703635527   0.444452042690712   0.875000000000000   1.0000000
N2   N   0.888895604305816   0.944445898488816   0.875000000000000   1.0000000
N2   N   0.054752113919980   0.943768378820232   0.375000000000000   1.0000000
N2   N   0.722230539894262   0.444450347892141   0.875000000000000   1.0000000
N2   N   0.387395016327871   0.942216884238142   0.375000000000000   1.0000000
N2   N   0.220979900041137   0.445357444597232   0.375000000000000   1.0000000
N2   N   0.220296036800858   0.611338487956888   0.375000000000000   1.0000000
N2   N   0.722668175090809   0.945308279789046   0.375000000000000   1.0000000
N2   N   0.888480499831090   0.443676566059931   0.375000000000000   1.0000000
N2   N   0.055559818625703   0.611112807059843   0.875000000000000   1.0000000
N2   N   0.222223079594175   0.111109259309609   0.875000000000000   1.0000000
N2   N   0.722230539894262   0.611113525335455   0.875000000000000   1.0000000
N2   N   0.555559762302149   0.111114184979838   0.875000000000000   1.0000000
N2   N   0.888894637178862   0.111113985256102   0.875000000000000   1.0000000
B2   B   0.110589740155116   0.054782043680944   0.375000000000000   1.0000000
B2   B   0.613333712886924   0.565134561131129   0.375000000000000   1.0000000
B2   B   0.443780268174534   0.052120346484671   0.375000000000000   1.0000000
B2   B   0.942874420950475   0.554724488870841   0.375000000000000   1.0000000
B2   B   0.778668810879121   0.056001072106228   0.375000000000000   1.0000000
B2   B   0.111120096140267   0.722226714736798   0.875000000000000   1.0000000
B2   B   0.444441435996462   0.722212488119939   0.875000000000000   1.0000000
B2   B   0.277787103251095   0.222231439566814   0.875000000000000   1.0000000
B2   B   0.777783355433023   0.722223799536936   0.875000000000000   1.0000000
B2   B   0.611106912296125   0.222227460870175   0.875000000000000   1.0000000
B2   B   0.944460240876751   0.222228465113871   0.875000000000000   1.0000000
B2   B   0.276186105610853   0.722109989052805   0.375000000000000   1.0000000
B2   B   0.112655499967455   0.222994416650392   0.375000000000000   1.0000000
B2   B   0.442644624577724   0.214728414037040   0.375000000000000   1.0000000
B2   B   0.611746382399149   0.726734689412960   0.375000000000000   1.0000000
B2   B   0.942874420950475   0.721483265412970   0.375000000000000   1.0000000
B2   B   0.778570144119603   0.221459845017063   0.375000000000000   1.0000000
B2   B   0.111120946262709   0.888900040672495   0.875000000000000   1.0000000
B2   B   0.444445549617799   0.888889441475563   0.875000000000000   1.0000000
B2   B   0.277787103251095   0.388888997017609   0.875000000000000   1.0000000
B2   B   0.611102052046358   0.388890916479876   0.875000000000000   1.0000000
B2   B   0.777786878541448   0.888893273557001   0.875000000000000   1.0000000
B2   B   0.944457820085172   0.388891619214433   0.875000000000000   1.0000000
B2   B   0.110589740155116   0.389141029807501   0.375000000000000   1.0000000
B2   B   0.276186105610853   0.887409449891377   0.375000000000000   1.0000000
B2   B   0.611529443874382   0.890384686763211   0.375000000000000   1.0000000
B2   B   0.944215546207282   0.889165723407360   0.375000000000000   1.0000000
B2   B   0.778120327600368   0.387349751078215   0.375000000000000   1.0000000
B2   B   0.277780615511924   0.555547315316482   0.875000000000000   1.0000000
B2   B   0.111124835991437   0.055567802102660   0.875000000000000   1.0000000
B2   B   0.611102052046358   0.555544468899811   0.875000000000000   1.0000000
B2   B   0.444441435996462   0.055562281209860   0.875000000000000   1.0000000
B2   B   0.944456435396219   0.555559129330460   0.875000000000000   1.0000000
B2   B   0.109505267253826   0.555251100091652   0.375000000000000   1.0000000
B2   B   0.777788378451162   0.055560855892249   0.875000000000000   1.0000000
B2   B   0.276132889977087   0.052941233642300   0.375000000000000   1.0000000
B2   B   0.442644624577724   0.561249543874022   0.375000000000000   1.0000000
B2   B   0.776067055925470   0.554700194629404   0.375000000000000   1.0000000
B2   B   0.611529443874382   0.054478090444501   0.375000000000000   1.0000000
B2   B   0.444435399573000   0.555540200464465   0.875000000000000   1.0000000
B2   B   0.945391445226757   0.056332527659622   0.375000000000000   1.0000000
B2   B   0.277781701840844   0.722219732450797   0.875000000000000   1.0000000
B2   B   0.111128906652396   0.222231119992863   0.875000000000000   1.0000000
B2   B   0.444435399573000   0.222228532441871   0.875000000000000   1.0000000
B2   B   0.611106912296125   0.722212784759279   0.875000000000000   1.0000000
B2   B   0.944456435396219   0.722230639399094   0.875000000000000   1.0000000
B2   B   0.777786878541448   0.222226938317776   0.875000000000000   1.0000000
B2   B   0.109261737798032   0.721297535565679   0.375000000000000   1.0000000
B2   B   0.443780268174534   0.724993255023198   0.375000000000000   1.0000000
B2   B   0.277684535671879   0.220454444369410   0.375000000000000   1.0000000
B2   B   0.778120327600368   0.724103909855481   0.375000000000000   1.0000000
B2   B   0.611746382399149   0.218345026319518   0.375000000000000   1.0000000
B2   B   0.945391445226757   0.222392250900471   0.375000000000000   1.0000000
B2   B   0.111124835991437   0.388890367222105   0.875000000000000   1.0000000
B2   B   0.277781701840844   0.888895302723375   0.875000000000000   1.0000000
B2   B   0.611112593301328   0.888887085332276   0.875000000000000   1.0000000
B2   B   0.444433618565371   0.388883475949350   0.875000000000000   1.0000000
B2   B   0.944457820085172   0.888899534204065   0.875000000000000   1.0000000
B2   B   0.109505267253826   0.887587500495503   0.375000000000000   1.0000000
B2   B   0.777783355433023   0.388892889229416   0.875000000000000   1.0000000
B2   B   0.443821934322551   0.888577633827941   0.375000000000000   1.0000000
B2   B   0.277684535671879   0.390563424635798   0.375000000000000   1.0000000
B2   B   0.276132889977087   0.556524989668123   0.375000000000000   1.0000000
B2   B   0.613333712886924   0.381532485089125   0.375000000000000   1.0000000
B2   B   0.778570144119603   0.890443632435869   0.375000000000000   1.0000000
B2   B   0.944215546207282   0.388383156133250   0.375000000000000   1.0000000
B2   B   0.111120946262709   0.555554238923542   0.875000000000000   1.0000000
B2   B   0.277780615511924   0.055566633528776   0.875000000000000   1.0000000
B2   B   0.777781539489562   0.555557436411449   0.875000000000000   1.0000000
B2   B   0.611112593301328   0.055558841302380   0.875000000000000   1.0000000
B2   B   0.944460240876751   0.055565109096216   0.875000000000000   1.0000000
B2   B   0.055531564108943   0.111103261811840   0.125026539105306   1.0000000
B2   B   0.555423331324754   0.611054305414978   0.124664052357738   1.0000000
B2   B   0.388833657230199   0.111096165653258   0.124946639400587   1.0000000
B2   B   0.888832430794968   0.611082882064156   0.125029726119466   1.0000000
B2   B   0.722196103846214   0.111091194430185   0.124992706203334   1.0000000
B2   B   0.055534701502848   0.777771771308430   0.625002792755204   1.0000000
B2   B   0.388866369692564   0.777765938908917   0.624987611734962   1.0000000
B2   B   0.222175536836225   0.277754435084780   0.625248571229757   1.0000000
B2   B   0.722159525726987   0.777759560302540   0.624989917554661   1.0000000
B2   B   0.555423331324754   0.277702359243111   0.625335947642262   1.0000000
B2   B   0.888863646398172   0.277758888549302   0.625003900936050   1.0000000
B2   B   0.222207608232960   0.777770470783148   0.124994955161374   1.0000000
B2   B   0.055531564108943   0.277761635630439   0.125026539105306   1.0000000
B2   B   0.388743170925803   0.277717120250527   0.123819622820656   1.0000000
B2   B   0.555509695858121   0.777768181130203   0.125002928508378   1.0000000
B2   B   0.888839189869334   0.777757651978692   0.125021439365648   1.0000000
B2   B   0.722159525726987   0.277733298757784   0.125010082445340   1.0000000
B2   B   0.055528636707479   0.944438547589644   0.624987555231234   1.0000000
B2   B   0.388866369692564   0.944433764116981   0.624987611734962   1.0000000
B2   B   0.222179338795253   0.444406148264436   0.625028578924300   1.0000000
B2   B   0.555291322668924   0.444312328001126   0.625840778360180   1.0000000
B2   B   0.722196103846214   0.944438242749364   0.625007293796665   1.0000000
B2   B   0.888839189869334   0.444414871223975   0.624978560634352   1.0000000
B2   B   0.055528636707479   0.444423422451164   0.125012444768766   1.0000000
B2   B   0.222202051448605   0.944445575140526   0.125010629872055   1.0000000
B2   B   0.555533647167886   0.944433490250607   0.124996032024599   1.0000000
B2   B   0.388743170925803   0.444359384008613   0.123819622820656   1.0000000
B2   B   0.888863646398172   0.944438091182205   0.124996099063949   1.0000000
B2   B   0.722093020503520   0.444383815489013   0.124984428872337   1.0000000
B2   B   0.222202051448605   0.611089809641414   0.624989370127944   1.0000000
B2   B   0.055531564108943   0.111103261811840   0.624973460894694   1.0000000
B2   B   0.555423331324754   0.611054305414978   0.625335947642262   1.0000000
B2   B   0.388833657230199   0.111096165653258   0.625053360599412   1.0000000
B2   B   0.888832430794968   0.611082882064156   0.624970273880534   1.0000000
B2   B   0.055534701502848   0.611096263527753   0.124997207244796   1.0000000
B2   B   0.722196103846214   0.111091194430185   0.625007293796665   1.0000000
B2   B   0.222179338795253   0.111106523864153   0.124971421075700   1.0000000
B2   B   0.388833657230199   0.611070824910285   0.124946639400587   1.0000000
B2   B   0.722093020503520   0.611042538347843   0.124984428872337   1.0000000
B2   B   0.555509695858121   0.111074848061255   0.125002928508378   1.0000000
B2   B   0.388833657230199   0.611070824910285   0.625053360599412   1.0000000
B2   B   0.888871882261212   0.111102607797278   0.124992686754065   1.0000000
B2   B   0.222207608232960   0.777770470783148   0.625005044838625   1.0000000
B2   B   0.055531564108943   0.277761635630439   0.624973460894694   1.0000000
B2   B   0.388743170925803   0.277717120250527   0.626180377179342   1.0000000
B2   B   0.555509695858121   0.777768181130203   0.624997071491622   1.0000000
B2   B   0.888839189869334   0.777757651978692   0.624978560634352   1.0000000
B2   B   0.722159525726987   0.277733298757784   0.624989917554661   1.0000000
B2   B   0.055534701502848   0.777771771308430   0.124997207244796   1.0000000
B2   B   0.388866369692564   0.777765938908917   0.125012388265038   1.0000000
B2   B   0.222175536836225   0.277754435084780   0.124751428770243   1.0000000
B2   B   0.722159525726987   0.777759560302540   0.125010082445340   1.0000000
B2   B   0.555423331324754   0.277702359243111   0.124664052357738   1.0000000
B2   B   0.888863646398172   0.277758888549302   0.124996099063949   1.0000000
B2   B   0.055528636707479   0.444423422451164   0.624987555231234   1.0000000
B2   B   0.222202051448605   0.944445575140526   0.624989370127944   1.0000000
B2   B   0.555533647167886   0.944433490250607   0.625003967975401   1.0000000
B2   B   0.388743170925803   0.444359384008613   0.626180377179342   1.0000000
B2   B   0.888863646398172   0.944438091182205   0.625003900936050   1.0000000
B2   B   0.055528636707479   0.944438547589644   0.125012444768766   1.0000000
B2   B   0.722093020503520   0.444383815489013   0.625015571127664   1.0000000
B2   B   0.388866369692564   0.944433764116981   0.125012388265038   1.0000000
B2   B   0.222179338795253   0.444406148264436   0.124971421075700   1.0000000
B2   B   0.222202051448605   0.611089809641414   0.125010629872055   1.0000000
B2   B   0.555291322668924   0.444312328001126   0.124159221639819   1.0000000
B2   B   0.722196103846214   0.944438242749364   0.124992706203334   1.0000000
B2   B   0.888839189869334   0.444414871223975   0.125021439365648   1.0000000
B2   B   0.055534701502848   0.611096263527753   0.625002792755204   1.0000000
B2   B   0.222179338795253   0.111106523864153   0.625028578924300   1.0000000
B2   B   0.722093020503520   0.611042538347843   0.625015571127664   1.0000000
B2   B   0.555509695858121   0.111074848061255   0.624997071491622   1.0000000
B2   B   0.888871882261212   0.111102607797278   0.625007313245935   1.0000000


