data_1
_audit_creation_method   'vasp2cif'
_cell_length_a    17.52789999999977
_cell_length_b    17.52789999999977
_cell_length_c    15.0
_cell_angle_alpha    90.0
_cell_angle_beta    90.0
_cell_angle_gamma    119.99999999999916

_symmetry_space_group_name_H-M    'P 1'
loop_
_atom_site_label
_atom_site_type_symbol
_atom_site_fract_x
_atom_site_fract_y
_atom_site_fract_z
_atom_site_occupancy
B2   B   0.906546248153815   0.955012829516256   0.110899432187438   1.0000000
B2   B   0.905880798981590   0.097014240329798   0.109655031954767   1.0000000
B2   B   0.905129639124993   0.239033389012775   0.110014504904129   1.0000000
B2   B   0.903759882493129   0.381020911218274   0.110874627168920   1.0000000
B2   B   0.900254836928259   0.522774484961881   0.111387982202705   1.0000000
B2   B   0.901791193700485   0.665474850066687   0.110760252235374   1.0000000
B2   B   0.905810795983665   0.811529020411273   0.111604076193468   1.0000000
B2   B   0.048160471808026   0.953170972140918   0.110705926005082   1.0000000
B2   B   0.048553347323334   0.096203032474436   0.110822808083698   1.0000000
B2   B   0.048330927880345   0.238882159990293   0.112114146842216   1.0000000
B2   B   0.047367640131279   0.381275266207587   0.112681954537506   1.0000000
B2   B   0.045263754433704   0.523332128078792   0.112147977836155   1.0000000
B2   B   0.045032902648966   0.665507519484960   0.111360939120108   1.0000000
B2   B   0.045959292173560   0.808583398669814   0.110900917761415   1.0000000
B2   B   0.189090707588139   0.950945026102985   0.110188910924129   1.0000000
B2   B   0.191013995841169   0.095252192138924   0.111078547494922   1.0000000
B2   B   0.190713012209722   0.237454374469808   0.113446783342233   1.0000000
B2   B   0.190769085060440   0.380819346776337   0.115421246612134   1.0000000
B2   B   0.189276729074496   0.523599431201427   0.114644523583240   1.0000000
B2   B   0.188730362631686   0.665817509337368   0.112159755566909   1.0000000
B2   B   0.188542421364544   0.808113319439801   0.110599925911105   1.0000000
B2   B   0.331625134375874   0.950424762132259   0.109553595372996   1.0000000
B2   B   0.331694459309486   0.092535843516307   0.110677547159338   1.0000000
B2   B   0.334896873198560   0.237715319576774   0.111062806385943   1.0000000
B2   B   0.332742729461530   0.378200907962039   0.110692197633615   1.0000000
B2   B   0.332616935589869   0.523646353867547   0.112950791612375   1.0000000
B2   B   0.332512152759140   0.666550617059949   0.113397102216106   1.0000000
B2   B   0.331796749541885   0.808560731947710   0.111192912997002   1.0000000
B2   B   0.475032300275369   0.951503125223685   0.109386911144067   1.0000000
B2   B   0.474721434944835   0.091865056348907   0.110146475186983   1.0000000
B2   B   0.473929984716535   0.231054788016939   0.116454684984905   1.0000000
B2   B   0.482497332080095   0.375716824076988   0.106352866529629   1.0000000
B2   B   0.476635608631119   0.671310765884872   0.113210956919711   1.0000000
B2   B   0.475521085333338   0.811144319808726   0.114416373342194   1.0000000
B2   B   0.619070181721799   0.954097597431186   0.110778624392943   1.0000000
B2   B   0.618534100405591   0.094502144532185   0.108653720055424   1.0000000
B2   B   0.617942068190930   0.234870141924966   0.113526102337774   1.0000000
B2   B   0.616109498910278   0.373957740829761   0.116626446141930   1.0000000
B2   B   0.622947930534293   0.677414671765973   0.112570325744041   1.0000000
B2   B   0.620095904651876   0.814449607114742   0.116939604921363   1.0000000
B2   B   0.763258933974020   0.955394444808104   0.111563852367496   1.0000000
B2   B   0.762400745316055   0.096555571034067   0.108884563057153   1.0000000
B2   B   0.761675397592656   0.238112768642979   0.109891759526225   1.0000000
B2   B   0.760126821744980   0.379815611451865   0.112646881524705   1.0000000
B2   B   0.752926261234548   0.521967756972303   0.109718701786921   1.0000000
B2   B   0.764214114759151   0.670172805794132   0.110409707270287   1.0000000
B2   B   0.764986258611059   0.814768967013252   0.115193408338876   1.0000000
Ge2   Ge   0.489611756288894   0.521777630645700   0.069314372084617   1.0000000
N2   N   0.953359854899978   0.906587958990622   0.111006468297862   1.0000000
N2   N   0.953726251396019   0.049657111397143   0.109839581721675   1.0000000
N2   N   0.953242741546961   0.191879909869304   0.110208734160214   1.0000000
N2   N   0.952242815627787   0.334016666203292   0.110852337117747   1.0000000
N2   N   0.949668593362877   0.476047717395205   0.111446002992254   1.0000000
N2   N   0.949438768299802   0.618049667294077   0.111228337216071   1.0000000
N2   N   0.950757826523038   0.761338190587386   0.111065462210641   1.0000000
N2   N   0.094115450455598   0.903961590573056   0.110630423427259   1.0000000
N2   N   0.095930957002882   0.048351022060374   0.110775234617540   1.0000000
N2   N   0.095843002683487   0.191018340933611   0.112252496201763   1.0000000
N2   N   0.095615640077194   0.333935553606277   0.113772852716188   1.0000000
N2   N   0.093990507658966   0.476317751968178   0.113271104028633   1.0000000
N2   N   0.093269584532357   0.618378945530021   0.111851932365289   1.0000000
N2   N   0.093249403465097   0.760715111780426   0.110973183649092   1.0000000
N2   N   0.236427148695109   0.903144817913558   0.109947727314699   1.0000000
N2   N   0.236893717194962   0.046012215296720   0.110222227683864   1.0000000
N2   N   0.239251865248977   0.190688104787752   0.111956515211383   1.0000000
N2   N   0.237923669375986   0.332096186021822   0.115327071865774   1.0000000
N2   N   0.237484615235011   0.476247994614276   0.116248669379408   1.0000000
N2   N   0.237107044372496   0.618746836683762   0.113489995817228   1.0000000
N2   N   0.236473886295748   0.760844328363905   0.111059310396202   1.0000000
N2   N   0.379659772763711   0.903460757705523   0.109694044468829   1.0000000
N2   N   0.379438207046227   0.045148704544702   0.109701567286386   1.0000000
N2   N   0.379400382138217   0.187109548093453   0.112359111287508   1.0000000
N2   N   0.384740043973773   0.334013495984377   0.107933039767815   1.0000000
N2   N   0.376046085135069   0.472148798770555   0.108001941058953   1.0000000
N2   N   0.381157488637604   0.619583342038364   0.112592632146500   1.0000000
N2   N   0.380077946273204   0.761765106094584   0.113046159210042   1.0000000
N2   N   0.523586799601584   0.905597837726978   0.111237642855353   1.0000000
N2   N   0.523148993981485   0.045908493380259   0.108269953528892   1.0000000
N2   N   0.522715931327474   0.185751790819902   0.113618125296043   1.0000000
N2   N   0.522063784506685   0.323550959186047   0.120557116584411   1.0000000
N2   N   0.551403871522894   0.466094723043701   0.089613269974159   1.0000000
N2   N   0.530191977885665   0.631640389907798   0.106660980488298   1.0000000
N2   N   0.524352647378844   0.765712565214794   0.117916978308948   1.0000000
N2   N   0.667882213326376   0.908435777858843   0.113036116988536   1.0000000
N2   N   0.667070747015415   0.048519030983971   0.108543949154086   1.0000000
N2   N   0.666491273284993   0.189080426425094   0.109909155431118   1.0000000
N2   N   0.665753947119669   0.329387497687405   0.116123958468704   1.0000000
N2   N   0.656680940839379   0.466732652062931   0.111168594119153   1.0000000
N2   N   0.673581571733744   0.636534695664882   0.107237003718170   1.0000000
N2   N   0.670622644950307   0.770654114323858   0.118892744010777   1.0000000
N2   N   0.811871950813804   0.908943986935106   0.112523225289772   1.0000000
N2   N   0.810729838177277   0.049924744061062   0.109319178305797   1.0000000
N2   N   0.809974122148099   0.191381508926744   0.109076213193325   1.0000000
N2   N   0.808825905315962   0.333194358259790   0.110751815978311   1.0000000
N2   N   0.804000488472929   0.475114270254828   0.111458223858294   1.0000000
N2   N   0.806046209135063   0.617960647554362   0.109657336812844   1.0000000
N2   N   0.811405338399601   0.765984534684273   0.112926538837759   1.0000000


