data_1
_audit_creation_method   'vasp2cif'
_cell_length_a    14.93631414619966
_cell_length_b    14.936314146199727
_cell_length_c    13.341276283792837
_cell_angle_alpha    90.0
_cell_angle_beta    90.0
_cell_angle_gamma    119.99999999999984

_symmetry_space_group_name_H-M    'P 1'
loop_
_atom_site_label
_atom_site_type_symbol
_atom_site_fract_x
_atom_site_fract_y
_atom_site_fract_z
_atom_site_occupancy
C2   C   0.446157811100006   0.393813672870595   0.375000000000000   1.0000000
N2   N   0.543911287470579   0.443645140822783   0.375000000000000   1.0000000
N2   N   0.111092609626162   0.055529510661997   0.124891304814628   1.0000000
N2   N   0.611088785309488   0.555520202921180   0.125370873132199   1.0000000
N2   N   0.444452193216575   0.055572452645261   0.124980355272474   1.0000000
N2   N   0.944414965345834   0.555524441819613   0.124971052799078   1.0000000
N2   N   0.777793892481057   0.055521621946585   0.124853211850659   1.0000000
N2   N   0.111083689888904   0.722204462017916   0.625127238857064   1.0000000
N2   N   0.444437387483366   0.722204944121979   0.625104532622520   1.0000000
N2   N   0.277746665557255   0.222199373054540   0.624983047114973   1.0000000
N2   N   0.777774738773180   0.722207350183669   0.625025470101482   1.0000000
N2   N   0.611132533267289   0.222212854540588   0.624782537348519   1.0000000
N2   N   0.944447614163193   0.222176118133812   0.625153407410091   1.0000000
N2   N   0.277761608220087   0.722212842035143   0.124883383150265   1.0000000
N2   N   0.111088167207025   0.222179287545961   0.124892083020215   1.0000000
N2   N   0.444424231787063   0.222230977285486   0.125246202570164   1.0000000
N2   N   0.611107303239323   0.722191451210600   0.124930655993889   1.0000000
N2   N   0.944424176623555   0.722207307903664   0.124916834973434   1.0000000
N2   N   0.777796869109895   0.222181928384740   0.124892228397212   1.0000000
N2   N   0.111096568853591   0.888880465299076   0.625133517121167   1.0000000
N2   N   0.444449775478410   0.888897716690058   0.625122648937886   1.0000000
N2   N   0.277755559518044   0.388850078118781   0.625020981936568   1.0000000
N2   N   0.611098393168184   0.388886618801580   0.625406626401611   1.0000000
N2   N   0.777786095995221   0.888865328407777   0.625128319479226   1.0000000
N2   N   0.944429525746548   0.388844946688295   0.625114562522129   1.0000000
N2   N   0.111091171764263   0.388851913214815   0.124887934632817   1.0000000
N2   N   0.277772320844580   0.888895792962597   0.124869374712498   1.0000000
N2   N   0.611118249869242   0.888874792565850   0.124867483840930   1.0000000
N2   N   0.444404565826769   0.388858237996299   0.125091648558553   1.0000000
N2   N   0.944442270080338   0.888874048624723   0.124868106078116   1.0000000
N2   N   0.777780908971962   0.388843694110063   0.125165201805795   1.0000000
N2   N   0.277757118761684   0.555527617880748   0.625097060011337   1.0000000
N2   N   0.111092609626162   0.055529510661997   0.625108695185372   1.0000000
N2   N   0.611088785309488   0.555520202921180   0.624629126867802   1.0000000
N2   N   0.444452193216575   0.055572452645261   0.625019644727526   1.0000000
N2   N   0.944414965345834   0.555524441819613   0.625028947200922   1.0000000
N2   N   0.111079053892676   0.555525113005204   0.124879934219073   1.0000000
N2   N   0.777793892481057   0.055521621946585   0.625146788149341   1.0000000
N2   N   0.277767111485447   0.055559330335812   0.124920802380272   1.0000000
N2   N   0.444428205891449   0.555518226891089   0.125011886166261   1.0000000
N2   N   0.777761398666388   0.555548849417412   0.125289289515037   1.0000000
N2   N   0.611129638828408   0.055552836328541   0.124903850055990   1.0000000
N2   N   0.444428205891449   0.555518226891089   0.624988113833739   1.0000000
N2   N   0.944445994155372   0.055519050546936   0.124867247223190   1.0000000
N2   N   0.277761608220087   0.722212842035143   0.625116616849736   1.0000000
N2   N   0.111088167207025   0.222179287545961   0.625107916979786   1.0000000
N2   N   0.444424231787063   0.222230977285486   0.624753797429836   1.0000000
N2   N   0.611107303239323   0.722191451210600   0.625069344006111   1.0000000
N2   N   0.944424176623555   0.722207307903664   0.625083165026566   1.0000000
N2   N   0.777796869109895   0.222181928384740   0.625107771602789   1.0000000
N2   N   0.111083689888904   0.722204462017916   0.124872761142936   1.0000000
N2   N   0.444437387483366   0.722204944121979   0.124895467377481   1.0000000
N2   N   0.277746665557255   0.222199373054540   0.125016952885027   1.0000000
N2   N   0.777774738773180   0.722207350183669   0.124974529898518   1.0000000
N2   N   0.611132533267289   0.222212854540588   0.125217462651481   1.0000000
N2   N   0.944447614163193   0.222176118133812   0.124846592589910   1.0000000
N2   N   0.111091171764263   0.388851913214815   0.625112065367183   1.0000000
N2   N   0.277772320844580   0.888895792962597   0.625130625287502   1.0000000
N2   N   0.611118249869242   0.888874792565850   0.625132516159070   1.0000000
N2   N   0.444404565826769   0.388858237996299   0.624908351441448   1.0000000
N2   N   0.944442270080338   0.888874048624723   0.625131893921884   1.0000000
N2   N   0.111096568853591   0.888880465299076   0.124866482878833   1.0000000
N2   N   0.777780908971962   0.388843694110063   0.624834798194205   1.0000000
N2   N   0.444449775478410   0.888897716690058   0.124877351062113   1.0000000
N2   N   0.277755559518044   0.388850078118781   0.124979018063432   1.0000000
N2   N   0.277757118761684   0.555527617880748   0.124902939988664   1.0000000
N2   N   0.611098393168184   0.388886618801580   0.124593373598389   1.0000000
N2   N   0.777786095995221   0.888865328407777   0.124871680520773   1.0000000
N2   N   0.944429525746548   0.388844946688295   0.124885437477871   1.0000000
N2   N   0.111079053892676   0.555525113005204   0.625120065780926   1.0000000
N2   N   0.277767111485447   0.055559330335812   0.625079197619728   1.0000000
N2   N   0.777761398666388   0.555548849417412   0.624710710484963   1.0000000
N2   N   0.611129638828408   0.055552836328541   0.625096149944010   1.0000000
N2   N   0.944445994155372   0.055519050546936   0.625132752776810   1.0000000
N2   N   0.056022410646541   0.110826063445503   0.375000000000000   1.0000000
N2   N   0.553766976544047   0.612250152574837   0.375000000000000   1.0000000
N2   N   0.391213307126894   0.115208551021727   0.375000000000000   1.0000000
N2   N   0.887238614957480   0.609445742303795   0.375000000000000   1.0000000
N2   N   0.722923882107483   0.109847298310943   0.375000000000000   1.0000000
N2   N   0.055554770102724   0.777772843812165   0.875000000000000   1.0000000
N2   N   0.388883237677864   0.777773018685133   0.875000000000000   1.0000000
N2   N   0.222220380051610   0.277778431285842   0.875000000000000   1.0000000
N2   N   0.722211622847160   0.777771320497909   0.875000000000000   1.0000000
N2   N   0.555548826440929   0.277767564186657   0.875000000000000   1.0000000
N2   N   0.888885658600097   0.277778554887077   0.875000000000000   1.0000000
N2   N   0.222290800860779   0.778673710633213   0.375000000000000   1.0000000
N2   N   0.056134345567133   0.277562324799735   0.375000000000000   1.0000000
N2   N   0.391894392023011   0.285059844103495   0.375000000000000   1.0000000
N2   N   0.554871138487618   0.778101143813385   0.375000000000000   1.0000000
N2   N   0.887459246710186   0.776073254214739   0.375000000000000   1.0000000
N2   N   0.724478039056474   0.276017751997919   0.375000000000000   1.0000000
N2   N   0.055551239106107   0.944440041187007   0.875000000000000   1.0000000
N2   N   0.388884551985473   0.944433507613148   0.875000000000000   1.0000000
N2   N   0.222219821702358   0.444446454952820   0.875000000000000   1.0000000
N2   N   0.555545771632511   0.444444439363172   0.875000000000000   1.0000000
N2   N   0.722211251517163   0.944437797855978   0.875000000000000   1.0000000
N2   N   0.888891785841303   0.444445306553840   0.875000000000000   1.0000000
N2   N   0.056404461332401   0.444539268212732   0.375000000000000   1.0000000
N2   N   0.223203807355972   0.946126288191370   0.375000000000000   1.0000000
N2   N   0.555558078635282   0.944310625986901   0.375000000000000   1.0000000
N2   N   0.387615511925608   0.443571837103525   0.375000000000000   1.0000000
N2   N   0.888806068816446   0.943417761361808   0.375000000000000   1.0000000
N2   N   0.724785226508662   0.441388244299922   0.375000000000000   1.0000000
N2   N   0.222218622377457   0.611108597983941   0.875000000000000   1.0000000
N2   N   0.055550371210267   0.111106953712277   0.875000000000000   1.0000000
N2   N   0.555543765672139   0.611105299558856   0.875000000000000   1.0000000
N2   N   0.388886125485618   0.111100748597309   0.875000000000000   1.0000000
N2   N   0.888888554009336   0.611105459223188   0.875000000000000   1.0000000
N2   N   0.055505822245476   0.611304314902384   0.375000000000000   1.0000000
N2   N   0.722210669002122   0.111103333302153   0.875000000000000   1.0000000
N2   N   0.224334404400561   0.113608405796259   0.375000000000000   1.0000000
N2   N   0.387894658333587   0.611198152894766   0.375000000000000   1.0000000
N2   N   0.717946206269504   0.607418248961768   0.375000000000000   1.0000000
N2   N   0.556559754434213   0.110739914277195   0.375000000000000   1.0000000
N2   N   0.388882391784929   0.611108903422525   0.875000000000000   1.0000000
N2   N   0.889433716175835   0.110207088361784   0.375000000000000   1.0000000
N2   N   0.222220522290549   0.777771483034373   0.875000000000000   1.0000000
N2   N   0.055552661228068   0.277778542381265   0.875000000000000   1.0000000
N2   N   0.388886946325857   0.277776445711674   0.875000000000000   1.0000000
N2   N   0.555544343621662   0.777771379470443   0.875000000000000   1.0000000
N2   N   0.888883951772820   0.777772875588493   0.875000000000000   1.0000000
N2   N   0.722216414256286   0.277772113985874   0.875000000000000   1.0000000
N2   N   0.055185509195503   0.777712250196713   0.375000000000000   1.0000000
N2   N   0.388599973361963   0.778424907743008   0.375000000000000   1.0000000
N2   N   0.222134659907380   0.278141375237600   0.375000000000000   1.0000000
N2   N   0.721325116948379   0.776517634900462   0.375000000000000   1.0000000
N2   N   0.559124027561011   0.276678314859450   0.375000000000000   1.0000000
N2   N   0.890234220466679   0.277052111104807   0.375000000000000   1.0000000
N2   N   0.055554390233948   0.444445807718861   0.875000000000000   1.0000000
N2   N   0.222220780332852   0.944437361919555   0.875000000000000   1.0000000
N2   N   0.555544887193723   0.944435752378228   0.875000000000000   1.0000000
N2   N   0.388884719528201   0.444446259043817   0.875000000000000   1.0000000
N2   N   0.888883431069822   0.944440289499616   0.875000000000000   1.0000000
N2   N   0.055937347581913   0.944626635518242   0.375000000000000   1.0000000
N2   N   0.722221094353314   0.444441354547778   0.875000000000000   1.0000000
N2   N   0.389340380334894   0.945920918457944   0.375000000000000   1.0000000
N2   N   0.222339949771006   0.444818171117465   0.375000000000000   1.0000000
N2   N   0.222027833016756   0.611696927318289   0.375000000000000   1.0000000
N2   N   0.722191993714694   0.943422451617314   0.375000000000000   1.0000000
N2   N   0.890544169804695   0.443828049206422   0.375000000000000   1.0000000
N2   N   0.055557221910730   0.611107482850635   0.875000000000000   1.0000000
N2   N   0.222218082267062   0.111105913746060   0.875000000000000   1.0000000
N2   N   0.722211619494996   0.611103349130064   0.875000000000000   1.0000000
N2   N   0.555545371303000   0.111097441994534   0.875000000000000   1.0000000
N2   N   0.888882346419303   0.111106743781456   0.875000000000000   1.0000000
B2   B   0.112556989105909   0.056267890613978   0.375000000000000   1.0000000
B2   B   0.605707960776751   0.552681176615486   0.375000000000000   1.0000000
B2   B   0.445937505404446   0.058233906701178   0.375000000000000   1.0000000
B2   B   0.943419601811318   0.554564554820724   0.375000000000000   1.0000000
B2   B   0.778074801700047   0.054605633396690   0.375000000000000   1.0000000
B2   B   0.111086110173287   0.722198814064719   0.875000000000000   1.0000000
B2   B   0.444443180051072   0.722219573506027   0.875000000000000   1.0000000
B2   B   0.277842189941659   0.222242846051932   0.875000000000000   1.0000000
B2   B   0.777743739895345   0.722146776446557   0.875000000000000   1.0000000
B2   B   0.611108551306177   0.222266990264944   0.875000000000000   1.0000000
B2   B   0.944409983731300   0.222239099919293   0.875000000000000   1.0000000
B2   B   0.277548604254561   0.722970706672251   0.375000000000000   1.0000000
B2   B   0.111131713234397   0.221841934835631   0.375000000000000   1.0000000
B2   B   0.452249994532607   0.230237489720576   0.375000000000000   1.0000000
B2   B   0.610328832744691   0.722640874124500   0.375000000000000   1.0000000
B2   B   0.942912527880985   0.720104030274069   0.375000000000000   1.0000000
B2   B   0.778761883018805   0.221347955113844   0.375000000000000   1.0000000
B2   B   0.111112597952513   0.888870502577960   0.875000000000000   1.0000000
B2   B   0.444447673959257   0.888909148348665   0.875000000000000   1.0000000
B2   B   0.277811375332527   0.388898784316639   0.875000000000000   1.0000000
B2   B   0.611126750569626   0.388878011959512   0.875000000000000   1.0000000
B2   B   0.777752482198620   0.888860803067262   0.875000000000000   1.0000000
B2   B   0.944390733808883   0.388898177415400   0.875000000000000   1.0000000
B2   B   0.111232426326441   0.388812157514121   0.375000000000000   1.0000000
B2   B   0.278384466408390   0.890210765148526   0.375000000000000   1.0000000
B2   B   0.610964601669763   0.888966364612019   0.375000000000000   1.0000000
B2   B   0.944001143397046   0.887416860951827   0.375000000000000   1.0000000
B2   B   0.777580104869669   0.387657481627693   0.375000000000000   1.0000000
B2   B   0.277778113632144   0.555559079006649   0.875000000000000   1.0000000
B2   B   0.111128200874013   0.055551927269268   0.875000000000000   1.0000000
B2   B   0.611111673890228   0.555492749655784   0.875000000000000   1.0000000
B2   B   0.444474494557525   0.055594717520797   0.875000000000000   1.0000000
B2   B   0.944388587896653   0.555520795937995   0.875000000000000   1.0000000
B2   B   0.110784411167770   0.555743791382916   0.375000000000000   1.0000000
B2   B   0.777744960590755   0.055569758322419   0.875000000000000   1.0000000
B2   B   0.280477556851999   0.058319167182372   0.375000000000000   1.0000000
B2   B   0.443817998195276   0.556120259181743   0.375000000000000   1.0000000
B2   B   0.772416586938824   0.548750750366371   0.375000000000000   1.0000000
B2   B   0.611612789198598   0.055584846871306   0.375000000000000   1.0000000
B2   B   0.444466598950100   0.555540143104102   0.875000000000000   1.0000000
B2   B   0.944668063563965   0.054587527233683   0.375000000000000   1.0000000
B2   B   0.277769891696709   0.722223900572484   0.875000000000000   1.0000000
B2   B   0.111120232593770   0.222232204984504   0.875000000000000   1.0000000
B2   B   0.444521618171596   0.222261192758329   0.875000000000000   1.0000000
B2   B   0.611100673517749   0.722183530865973   0.875000000000000   1.0000000
B2   B   0.944403163180438   0.722159123124422   0.875000000000000   1.0000000
B2   B   0.777731642823332   0.222256459507101   0.875000000000000   1.0000000
B2   B   0.110846254868310   0.722348546651270   0.375000000000000   1.0000000
B2   B   0.443875603510456   0.722625266633081   0.375000000000000   1.0000000
B2   B   0.280159698980874   0.225339242994756   0.375000000000000   1.0000000
B2   B   0.775190334258419   0.718462757403410   0.375000000000000   1.0000000
B2   B   0.613210881641399   0.223629449377697   0.375000000000000   1.0000000
B2   B   0.944932001975147   0.221556664556007   0.375000000000000   1.0000000
B2   B   0.111093748487442   0.388898985627211   0.875000000000000   1.0000000
B2   B   0.277791688778087   0.888898158691825   0.875000000000000   1.0000000
B2   B   0.611094490335181   0.888890784873865   0.875000000000000   1.0000000
B2   B   0.444513973831707   0.388893211003213   0.875000000000000   1.0000000
B2   B   0.944424277275451   0.888847931930782   0.875000000000000   1.0000000
B2   B   0.111601354005734   0.889190623247698   0.375000000000000   1.0000000
B2   B   0.777724546721917   0.388890394892645   0.875000000000000   1.0000000
B2   B   0.444506239501824   0.889931748524860   0.375000000000000   1.0000000
B2   B   0.276627500896908   0.388460136919151   0.375000000000000   1.0000000
B2   B   0.277169263285010   0.556013847872117   0.375000000000000   1.0000000
B2   B   0.777457827908246   0.887520198574604   0.375000000000000   1.0000000
B2   B   0.945053679857442   0.388483124730073   0.375000000000000   1.0000000
B2   B   0.111077700881253   0.555548592604637   0.875000000000000   1.0000000
B2   B   0.277828532263547   0.055577274209194   0.875000000000000   1.0000000
B2   B   0.777729148285941   0.555478294074564   0.875000000000000   1.0000000
B2   B   0.611095479194079   0.055592635647394   0.875000000000000   1.0000000
B2   B   0.944426679970403   0.055549386317255   0.875000000000000   1.0000000
B2   B   0.055543194894307   0.111060244399903   0.125009511471562   1.0000000
B2   B   0.555665718548911   0.610961795439648   0.125317102917288   1.0000000
B2   B   0.389053665879385   0.111324418761559   0.125463574015136   1.0000000
B2   B   0.888642452784431   0.610921558364930   0.125560630145798   1.0000000
B2   B   0.722228478064128   0.111201907037008   0.125162634393907   1.0000000
B2   B   0.055436487391970   0.777700989310658   0.624898275096674   1.0000000
B2   B   0.388904179847621   0.777822586840921   0.624974865541172   1.0000000
B2   B   0.222250784491464   0.277717613052746   0.624966717912003   1.0000000
B2   B   0.722249704472993   0.777671336179095   0.624871715302200   1.0000000
B2   B   0.555765307440300   0.278064237711940   0.623404421058075   1.0000000
B2   B   0.888773955763462   0.277760015654522   0.624846694672290   1.0000000
B2   B   0.222163967667243   0.777792802512405   0.125047189833592   1.0000000
B2   B   0.055494494018700   0.277726872192530   0.125014650117667   1.0000000
B2   B   0.389091520846382   0.277824474421245   0.125430530909135   1.0000000
B2   B   0.555608198121020   0.777753062451349   0.125032216388253   1.0000000
B2   B   0.888813323356541   0.777648872667465   0.125175776838608   1.0000000
B2   B   0.722146267276489   0.277875777899198   0.125791003000434   1.0000000
B2   B   0.055528727087284   0.944395263042858   0.624959303163747   1.0000000
B2   B   0.388960869288403   0.944606334276433   0.624873225686379   1.0000000
B2   B   0.222193868670933   0.444386199633301   0.624994308154197   1.0000000
B2   B   0.555745122140069   0.444235441075650   0.623830832842944   1.0000000
B2   B   0.722246624850249   0.944444701906739   0.624967926232994   1.0000000
B2   B   0.888614048476317   0.444327201588331   0.624486915734330   1.0000000
B2   B   0.055399138164458   0.444375677935990   0.125076805898778   1.0000000
B2   B   0.222244020306882   0.944501865291502   0.125076645472034   1.0000000
B2   B   0.555612950441558   0.944559236856749   0.125075763200155   1.0000000
B2   B   0.389027219643747   0.444331586537894   0.125089384479955   1.0000000
B2   B   0.888878578713328   0.944381301654648   0.125030763925205   1.0000000
B2   B   0.721970980262901   0.444259963546572   0.126727978939049   1.0000000
B2   B   0.222140362461449   0.611077150477474   0.624970953099095   1.0000000
B2   B   0.055543194894307   0.111060244399903   0.624990488528439   1.0000000
B2   B   0.555665718548911   0.610961795439648   0.624682897082713   1.0000000
B2   B   0.389053665879385   0.111324418761559   0.624536425984864   1.0000000
B2   B   0.888642452784431   0.610921558364930   0.624439369854202   1.0000000
B2   B   0.055348929917392   0.611011738028803   0.125145006377088   1.0000000
B2   B   0.722228478064128   0.111201907037008   0.624837365606093   1.0000000
B2   B   0.222280832846216   0.111119739071883   0.125111703618933   1.0000000
B2   B   0.388925774369522   0.611058884019933   0.125031395770019   1.0000000
B2   B   0.722186330885142   0.610889673621145   0.125767585027341   1.0000000
B2   B   0.555669585024351   0.111370296027477   0.125491715335126   1.0000000
B2   B   0.388925774369522   0.611058884019933   0.624968604229981   1.0000000
B2   B   0.888862399696902   0.111091844320627   0.125024193840329   1.0000000
B2   B   0.222163967667243   0.777792802512405   0.624952810166407   1.0000000
B2   B   0.055494494018700   0.277726872192530   0.624985349882333   1.0000000
B2   B   0.389091520846382   0.277824474421245   0.624569469090864   1.0000000
B2   B   0.555608198121020   0.777753062451349   0.624967783611747   1.0000000
B2   B   0.888813323356541   0.777648872667465   0.624824223161392   1.0000000
B2   B   0.722146267276489   0.277875777899198   0.624208996999566   1.0000000
B2   B   0.055436487391970   0.777700989310658   0.125101724903326   1.0000000
B2   B   0.388904179847621   0.777822586840921   0.125025134458829   1.0000000
B2   B   0.222250784491464   0.277717613052746   0.125033282087997   1.0000000
B2   B   0.722249704472993   0.777671336179095   0.125128284697800   1.0000000
B2   B   0.555765307440300   0.278064237711940   0.126595578941925   1.0000000
B2   B   0.888773955763462   0.277760015654522   0.125153305327710   1.0000000
B2   B   0.055399138164458   0.444375677935990   0.624923194101222   1.0000000
B2   B   0.222244020306882   0.944501865291502   0.624923354527966   1.0000000
B2   B   0.555612950441558   0.944559236856749   0.624924236799844   1.0000000
B2   B   0.389027219643747   0.444331586537894   0.624910615520045   1.0000000
B2   B   0.888878578713328   0.944381301654648   0.624969236074795   1.0000000
B2   B   0.055528727087284   0.944395263042858   0.125040696836253   1.0000000
B2   B   0.721970980262901   0.444259963546572   0.623272021060952   1.0000000
B2   B   0.388960869288403   0.944606334276433   0.125126774313621   1.0000000
B2   B   0.222193868670933   0.444386199633301   0.125005691845803   1.0000000
B2   B   0.222140362461449   0.611077150477474   0.125029046900905   1.0000000
B2   B   0.555745122140069   0.444235441075650   0.126169167157056   1.0000000
B2   B   0.722246624850249   0.944444701906739   0.125032073767006   1.0000000
B2   B   0.888614048476317   0.444327201588331   0.125513084265670   1.0000000
B2   B   0.055348929917392   0.611011738028803   0.624854993622912   1.0000000
B2   B   0.222280832846216   0.111119739071883   0.624888296381067   1.0000000
B2   B   0.722186330885142   0.610889673621145   0.624232414972659   1.0000000
B2   B   0.555669585024351   0.111370296027477   0.624508284664874   1.0000000
B2   B   0.888862399696902   0.111091844320627   0.624975806159671   1.0000000


