data_1
_audit_creation_method   'vasp2cif'
_cell_length_a    14.93631414619966
_cell_length_b    14.936314146199727
_cell_length_c    13.341276283792837
_cell_angle_alpha    90.0
_cell_angle_beta    90.0
_cell_angle_gamma    119.99999999999984

_symmetry_space_group_name_H-M    'P 1'
loop_
_atom_site_label
_atom_site_type_symbol
_atom_site_fract_x
_atom_site_fract_y
_atom_site_fract_z
_atom_site_occupancy
N2   N   0.112309503759844   0.056815673026573   0.125000000000000   1.0000000
N2   N   0.607174305666165   0.551415724390294   0.125000000000000   1.0000000
N2   N   0.444315496024005   0.055971460055059   0.125000000000000   1.0000000
N2   N   0.946579641524469   0.555601076880723   0.125000000000000   1.0000000
N2   N   0.777869785581627   0.055666761737098   0.125000000000000   1.0000000
N2   N   0.111108027085914   0.722219615933619   0.625000000000000   1.0000000
N2   N   0.444445598494448   0.722220624700417   0.625000000000000   1.0000000
N2   N   0.277769850536856   0.222221161838807   0.625000000000000   1.0000000
N2   N   0.777781894564082   0.722229032637525   0.625000000000000   1.0000000
N2   N   0.611112094256069   0.222222437605333   0.625000000000000   1.0000000
N2   N   0.944448185932929   0.222221158533602   0.625000000000000   1.0000000
N2   N   0.278067730228689   0.722418135824962   0.125000000000000   1.0000000
N2   N   0.112424053308386   0.222398328022247   0.125000000000000   1.0000000
N2   N   0.441767879942894   0.221481407051771   0.125000000000000   1.0000000
N2   N   0.610543798985314   0.721219064805979   0.125000000000000   1.0000000
N2   N   0.946603673678445   0.724399302249890   0.125000000000000   1.0000000
N2   N   0.777523506996253   0.221544810367383   0.125000000000000   1.0000000
N2   N   0.111109255049732   0.888895438679213   0.625000000000000   1.0000000
N2   N   0.444447660745549   0.888892423389972   0.625000000000000   1.0000000
N2   N   0.277772817710968   0.388886866001627   0.625000000000000   1.0000000
N2   N   0.611104253888968   0.388887246918056   0.625000000000000   1.0000000
N2   N   0.777784588143193   0.888895585624117   0.625000000000000   1.0000000
N2   N   0.944449808566567   0.388885894605882   0.625000000000000   1.0000000
N2   N   0.110977457794251   0.388649005669702   0.125000000000000   1.0000000
N2   N   0.278075234584599   0.889184681376344   0.125000000000000   1.0000000
N2   N   0.611044809836006   0.888796093756992   0.125000000000000   1.0000000
N2   N   0.944816554732546   0.889546625834412   0.125000000000000   1.0000000
N2   N   0.776972191557214   0.386668655653080   0.125000000000000   1.0000000
N2   N   0.277776518511433   0.555551226162950   0.625000000000000   1.0000000
N2   N   0.111108875674624   0.055560428046378   0.625000000000000   1.0000000
N2   N   0.611102571145701   0.555552099538975   0.625000000000000   1.0000000
N2   N   0.444446781766469   0.055557673629046   0.625000000000000   1.0000000
N2   N   0.944446734706444   0.555549476040377   0.625000000000000   1.0000000
N2   N   0.111829458756807   0.555387760550138   0.125000000000000   1.0000000
N2   N   0.777783398904068   0.055558539834920   0.625000000000000   1.0000000
N2   N   0.277681227453629   0.055414392695932   0.125000000000000   1.0000000
N2   N   0.443217931583287   0.555691628943050   0.125000000000000   1.0000000
N2   N   0.610918943866630   0.055756239446990   0.125000000000000   1.0000000
N2   N   0.444441804101428   0.555551634494158   0.625000000000000   1.0000000
N2   N   0.944907834762188   0.055957393772248   0.125000000000000   1.0000000
N2   N   0.277777587562299   0.722220224553910   0.625000000000000   1.0000000
N2   N   0.111108105518580   0.222220022535617   0.625000000000000   1.0000000
N2   N   0.444442092744847   0.222222008694331   0.625000000000000   1.0000000
N2   N   0.611112201766883   0.722221251345472   0.625000000000000   1.0000000
N2   N   0.944445608565029   0.722229757406508   0.625000000000000   1.0000000
N2   N   0.777782478869777   0.222222231466165   0.625000000000000   1.0000000
N2   N   0.111868704315697   0.722682469322779   0.125000000000000   1.0000000
N2   N   0.444359513533264   0.722521333821834   0.125000000000000   1.0000000
N2   N   0.281325518097401   0.223703012144721   0.125000000000000   1.0000000
N2   N   0.776737852619141   0.723274461296428   0.125000000000000   1.0000000
N2   N   0.609737758853486   0.222527033044710   0.125000000000000   1.0000000
N2   N   0.944898172289318   0.222155564535555   0.125000000000000   1.0000000
N2   N   0.111109651602443   0.388885111296994   0.625000000000000   1.0000000
N2   N   0.277779246361800   0.888891857006513   0.625000000000000   1.0000000
N2   N   0.611114217520959   0.888892163430797   0.625000000000000   1.0000000
N2   N   0.444436440564417   0.388887874814826   0.625000000000000   1.0000000
N2   N   0.944450142336939   0.888901707545459   0.625000000000000   1.0000000
N2   N   0.111952473494514   0.889971836660520   0.125000000000000   1.0000000
N2   N   0.777783791757984   0.388887938873869   0.625000000000000   1.0000000
N2   N   0.444541541553744   0.889268317875133   0.125000000000000   1.0000000
N2   N   0.277271778881767   0.389044765436209   0.125000000000000   1.0000000
N2   N   0.277632171136914   0.555551434976178   0.125000000000000   1.0000000
N2   N   0.608523978968992   0.388656820456571   0.125000000000000   1.0000000
N2   N   0.777805753431379   0.889585019174054   0.125000000000000   1.0000000
N2   N   0.944388336148991   0.388494349991175   0.125000000000000   1.0000000
N2   N   0.111109284600026   0.555549768681407   0.625000000000000   1.0000000
N2   N   0.277774740350966   0.055558291363580   0.625000000000000   1.0000000
N2   N   0.777777114219807   0.555556019214880   0.625000000000000   1.0000000
N2   N   0.611112994936395   0.055556888030584   0.625000000000000   1.0000000
N2   N   0.944449108350567   0.055559959166281   0.625000000000000   1.0000000
N2   N   0.055563605069745   0.111103010218018   0.375079814276556   1.0000000
N2   N   0.555544536776394   0.611104099930582   0.375142936977269   1.0000000
N2   N   0.388864818697565   0.111059484037603   0.375072881040127   1.0000000
N2   N   0.888988152327785   0.611159892641630   0.375691778486182   1.0000000
N2   N   0.722201523210525   0.111098420997281   0.375086755141599   1.0000000
N2   N   0.055583181121725   0.777774296173166   0.874837861302383   1.0000000
N2   N   0.388896838712600   0.777783922222421   0.874909503738593   1.0000000
N2   N   0.222250520258777   0.277785692696115   0.874943466989662   1.0000000
N2   N   0.722197968803038   0.777771231770764   0.874841700225538   1.0000000
N2   N   0.555543539086881   0.277752702933773   0.875011586250618   1.0000000
N2   N   0.888877196192288   0.277781886130670   0.874899491975175   1.0000000
N2   N   0.222245092055917   0.777772845037763   0.375119410933123   1.0000000
N2   N   0.055562021355447   0.277783272314979   0.375075476435291   1.0000000
N2   N   0.388899967993017   0.277735176252023   0.375487960618961   1.0000000
N2   N   0.555541299160091   0.777778777375961   0.375103609106843   1.0000000
N2   N   0.888887416083371   0.777767511892880   0.375153310696348   1.0000000
N2   N   0.722195824208773   0.277755506587113   0.375136635008633   1.0000000
N2   N   0.055556044114477   0.944425800431316   0.874914037692630   1.0000000
N2   N   0.388887372987871   0.944425540743414   0.874918257640437   1.0000000
N2   N   0.222234427123255   0.444455299380229   0.874910724383807   1.0000000
N2   N   0.555607880500145   0.444450334950295   0.874523945086558   1.0000000
N2   N   0.722205954238591   0.944436718503249   0.874902770341599   1.0000000
N2   N   0.888893616968400   0.444455952964761   0.874849727174171   1.0000000
N2   N   0.055553734421703   0.444457041601800   0.375102285585727   1.0000000
N2   N   0.222215938522122   0.944401915958474   0.375113926923974   1.0000000
N2   N   0.555542935921982   0.944438024319984   0.375092602420864   1.0000000
N2   N   0.388907973205034   0.444441295904667   0.375249619050385   1.0000000
N2   N   0.888880551197157   0.944429156419831   0.375102268709937   1.0000000
N2   N   0.722213806803554   0.444393709647975   0.375648728575557   1.0000000
N2   N   0.222234929464948   0.611121097211154   0.874912495484501   1.0000000
N2   N   0.055563605069745   0.111103010218018   0.874920185723445   1.0000000
N2   N   0.555544536776394   0.611104099930582   0.874857063022731   1.0000000
N2   N   0.388864818697565   0.111059484037603   0.874927118959873   1.0000000
N2   N   0.888988152327785   0.611159892641630   0.874308221513818   1.0000000
N2   N   0.055589281972457   0.611127106940199   0.375174542457110   1.0000000
N2   N   0.722201523210525   0.111098420997281   0.874913244858400   1.0000000
N2   N   0.222234318706456   0.111083572292297   0.375029764274557   1.0000000
N2   N   0.388897610887826   0.611112924219132   0.375074910297543   1.0000000
N2   N   0.722198051426170   0.611137123763948   0.375624246574780   1.0000000
N2   N   0.555532397158495   0.111083042048064   0.375080379378249   1.0000000
N2   N   0.388897610887826   0.611112924219132   0.874925089702458   1.0000000
N2   N   0.888882499828673   0.111104544302182   0.375093758926270   1.0000000
N2   N   0.222245092055917   0.777772845037763   0.874880589066877   1.0000000
N2   N   0.055562021355447   0.277783272314979   0.874924523564709   1.0000000
N2   N   0.388899967993017   0.277735176252023   0.874512039381039   1.0000000
N2   N   0.555541299160091   0.777778777375961   0.874896390893157   1.0000000
N2   N   0.888887416083371   0.777767511892880   0.874846689303652   1.0000000
N2   N   0.722195824208773   0.277755506587113   0.874863364991367   1.0000000
N2   N   0.055583181121725   0.777774296173166   0.375162138697617   1.0000000
N2   N   0.388896838712600   0.777783922222421   0.375090496261407   1.0000000
N2   N   0.222250520258777   0.277785692696115   0.375056533010338   1.0000000
N2   N   0.722197968803038   0.777771231770764   0.375158299774462   1.0000000
N2   N   0.555543539086881   0.277752702933773   0.374988413749382   1.0000000
N2   N   0.888877196192288   0.277781886130670   0.375100508024825   1.0000000
N2   N   0.055553734421703   0.444457041601800   0.874897714414273   1.0000000
N2   N   0.222215938522122   0.944401915958474   0.874886073076026   1.0000000
N2   N   0.555542935921982   0.944438024319984   0.874907397579136   1.0000000
N2   N   0.388907973205034   0.444441295904667   0.874750380949615   1.0000000
N2   N   0.888880551197157   0.944429156419831   0.874897731290064   1.0000000
N2   N   0.055556044114477   0.944425800431316   0.375085962307370   1.0000000
N2   N   0.722213806803554   0.444393709647975   0.874351271424443   1.0000000
N2   N   0.388887372987871   0.944425540743414   0.375081742359563   1.0000000
N2   N   0.222234427123255   0.444455299380229   0.375089275616193   1.0000000
N2   N   0.222234929464948   0.611121097211154   0.375087504515499   1.0000000
N2   N   0.555607880500145   0.444450334950295   0.375476054913442   1.0000000
N2   N   0.722205954238591   0.944436718503249   0.375097229658401   1.0000000
N2   N   0.888893616968400   0.444455952964761   0.375150272825829   1.0000000
N2   N   0.055589281972457   0.611127106940199   0.874825457542890   1.0000000
N2   N   0.222234318706456   0.111083572292297   0.874970235725443   1.0000000
N2   N   0.722198051426170   0.611137123763948   0.874375753425220   1.0000000
N2   N   0.555532397158495   0.111083042048064   0.874919620621751   1.0000000
N2   N   0.888882499828673   0.111104544302182   0.874906241073730   1.0000000
B2   B   0.111115099980177   0.055489342094636   0.374891747637848   1.0000000
B2   B   0.611283612191845   0.555523258832173   0.374804072200518   1.0000000
B2   B   0.444440723689759   0.055572715193765   0.374909279832238   1.0000000
B2   B   0.944304549007276   0.555629180369983   0.374768723041585   1.0000000
B2   B   0.777745746762861   0.055533787883340   0.374929271490514   1.0000000
B2   B   0.111020413489936   0.722170698713954   0.875139232850400   1.0000000
B2   B   0.444466717909553   0.722196367918484   0.875078908263328   1.0000000
B2   B   0.277951285431045   0.222291755838880   0.875094197459800   1.0000000
B2   B   0.777706634430919   0.721985769878090   0.875258946220502   1.0000000
B2   B   0.611125540153791   0.222329560581092   0.875175323377882   1.0000000
B2   B   0.944415769524762   0.222257699714209   0.875072631303790   1.0000000
B2   B   0.277753188796540   0.722215997866916   0.374926790338664   1.0000000
B2   B   0.111171902424412   0.222243944025136   0.374902475428644   1.0000000
B2   B   0.444505571471977   0.222317289781184   0.374865873957414   1.0000000
B2   B   0.611133005390878   0.722119482168017   0.374829773436663   1.0000000
B2   B   0.944300452201377   0.722006728346844   0.374765847309744   1.0000000
B2   B   0.777731560327281   0.222304422070312   0.374891906460469   1.0000000
B2   B   0.111037481010675   0.888759579601100   0.875118818092880   1.0000000
B2   B   0.444435022281852   0.888878140648136   0.875059771346623   1.0000000
B2   B   0.277925187780372   0.388941072581268   0.875073844141378   1.0000000
B2   B   0.611294581390220   0.389079415704126   0.875203771378764   1.0000000
B2   B   0.777730896935369   0.888752510258735   0.875119124323810   1.0000000
B2   B   0.944355325741840   0.388997314067897   0.875161434529346   1.0000000
B2   B   0.111111673465660   0.388946192288230   0.374925530596212   1.0000000
B2   B   0.277740415219772   0.888844536718160   0.374931045066564   1.0000000
B2   B   0.611098363036667   0.888841891889874   0.374923829858748   1.0000000
B2   B   0.444659909131798   0.388938429125987   0.374548543627519   1.0000000
B2   B   0.944352490077326   0.888688220070361   0.374829321160686   1.0000000
B2   B   0.777718034268281   0.389063023861934   0.374760152153358   1.0000000
B2   B   0.277805848983702   0.555574250055423   0.875073673581436   1.0000000
B2   B   0.111115099980177   0.055489342094636   0.875108252362151   1.0000000
B2   B   0.611283612191845   0.555523258832173   0.875195927799482   1.0000000
B2   B   0.444440723689759   0.055572715193765   0.875090720167762   1.0000000
B2   B   0.944304549007276   0.555629180369983   0.875231276958415   1.0000000
B2   B   0.111042959785371   0.555598758413205   0.374884458626243   1.0000000
B2   B   0.777745746762861   0.055533787883340   0.875070728509486   1.0000000
B2   B   0.277787633274769   0.055522816427174   0.374919508811540   1.0000000
B2   B   0.444550571478599   0.555515738732382   0.374884502170788   1.0000000
B2   B   0.777788117247468   0.555559688713038   0.373478166063876   1.0000000
B2   B   0.611092997635490   0.055577696347238   0.374933516592266   1.0000000
B2   B   0.444550571478599   0.555515738732382   0.875115497829212   1.0000000
B2   B   0.944418544318824   0.055483249901850   0.374927600391081   1.0000000
B2   B   0.277753188796540   0.722215997866916   0.875073209661336   1.0000000
B2   B   0.111171902424412   0.222243944025136   0.875097524571356   1.0000000
B2   B   0.444505571471977   0.222317289781184   0.875134126042586   1.0000000
B2   B   0.611133005390878   0.722119482168017   0.875170226563337   1.0000000
B2   B   0.944300452201377   0.722006728346844   0.875234152690255   1.0000000
B2   B   0.777731560327281   0.222304422070312   0.875108093539531   1.0000000
B2   B   0.111020413489936   0.722170698713954   0.374860767149600   1.0000000
B2   B   0.444466717909553   0.722196367918484   0.374921091736672   1.0000000
B2   B   0.277951285431045   0.222291755838880   0.374905802540200   1.0000000
B2   B   0.777706634430919   0.721985769878090   0.374741053779498   1.0000000
B2   B   0.611125540153791   0.222329560581092   0.374824676622118   1.0000000
B2   B   0.944415769524762   0.222257699714209   0.374927368696210   1.0000000
B2   B   0.111111673465660   0.388946192288230   0.875074469403788   1.0000000
B2   B   0.277740415219772   0.888844536718160   0.875068954933436   1.0000000
B2   B   0.611098363036667   0.888841891889874   0.875076170141252   1.0000000
B2   B   0.444659909131798   0.388938429125987   0.875451456372480   1.0000000
B2   B   0.944352490077326   0.888688220070361   0.875170678839314   1.0000000
B2   B   0.111037481010675   0.888759579601100   0.374881181907119   1.0000000
B2   B   0.777718034268281   0.389063023861934   0.875239847846643   1.0000000
B2   B   0.444435022281852   0.888878140648136   0.374940228653377   1.0000000
B2   B   0.277925187780372   0.388941072581268   0.374926155858622   1.0000000
B2   B   0.277805848983702   0.555574250055423   0.374926326418564   1.0000000
B2   B   0.611294581390220   0.389079415704126   0.374796228621236   1.0000000
B2   B   0.777730896935369   0.888752510258735   0.374880875676190   1.0000000
B2   B   0.944355325741840   0.388997314067897   0.374838565470654   1.0000000
B2   B   0.111042959785371   0.555598758413205   0.875115541373757   1.0000000
B2   B   0.277787633274769   0.055522816427174   0.875080491188460   1.0000000
B2   B   0.777788117247468   0.555559688713038   0.876521833936124   1.0000000
B2   B   0.611092997635490   0.055577696347238   0.875066483407734   1.0000000
B2   B   0.944418544318824   0.055483249901850   0.875072399608919   1.0000000
B2   B   0.056119472080785   0.111494455732709   0.125000000000000   1.0000000
B2   B   0.553977081218235   0.608864972995562   0.125000000000000   1.0000000
B2   B   0.388270275199272   0.111146388525709   0.125000000000000   1.0000000
B2   B   0.890475239020578   0.611940775189289   0.125000000000000   1.0000000
B2   B   0.722160295648534   0.111006262236217   0.125000000000000   1.0000000
B2   B   0.055495813557642   0.777742803876388   0.625000000000000   1.0000000
B2   B   0.388886397040297   0.777763785393293   0.625000000000000   1.0000000
B2   B   0.222242024520558   0.277787105751236   0.625000000000000   1.0000000
B2   B   0.722238189087353   0.777734046830248   0.625000000000000   1.0000000
B2   B   0.555584528662132   0.277843046478149   0.625000000000000   1.0000000
B2   B   0.888889105993452   0.277803070832114   0.625000000000000   1.0000000
B2   B   0.222335857730018   0.777947974472025   0.125000000000000   1.0000000
B2   B   0.056212423476640   0.277660798947559   0.125000000000000   1.0000000
B2   B   0.555633079671861   0.777175579057187   0.125000000000000   1.0000000
B2   B   0.888361761591208   0.777211202992283   0.125000000000000   1.0000000
B2   B   0.721780924215995   0.277326535989249   0.125000000000000   1.0000000
B2   B   0.055534206912761   0.944425154818034   0.625000000000000   1.0000000
B2   B   0.388885293639059   0.944456016570341   0.625000000000000   1.0000000
B2   B   0.222228614997503   0.444434598140224   0.625000000000000   1.0000000
B2   B   0.555582272659218   0.444459492736314   0.625000000000000   1.0000000
B2   B   0.722237706785660   0.944431520153109   0.625000000000000   1.0000000
B2   B   0.888863975567987   0.444466383457238   0.625000000000000   1.0000000
B2   B   0.055311514788606   0.444229512650294   0.125000000000000   1.0000000
B2   B   0.222439039851254   0.944742964673786   0.125000000000000   1.0000000
B2   B   0.555623332936814   0.944567947807542   0.125000000000000   1.0000000
B2   B   0.388138716560754   0.445077580204844   0.125000000000000   1.0000000
B2   B   0.889053810130425   0.944609196554829   0.125000000000000   1.0000000
B2   B   0.721273389445401   0.443431167026250   0.125000000000000   1.0000000
B2   B   0.222200623119120   0.611091891190348   0.625000000000000   1.0000000
B2   B   0.055558442673305   0.111108246331873   0.625000000000000   1.0000000
B2   B   0.555587483749137   0.611078079441206   0.625000000000000   1.0000000
B2   B   0.388903133669551   0.111151802702528   0.625000000000000   1.0000000
B2   B   0.888829732972562   0.611082572052285   0.625000000000000   1.0000000
B2   B   0.056143365302157   0.610973947215374   0.125000000000000   1.0000000
B2   B   0.722236585432552   0.111136775912585   0.625000000000000   1.0000000
B2   B   0.223655050211208   0.112210391294300   0.125000000000000   1.0000000
B2   B   0.388549351241284   0.611486283050935   0.125000000000000   1.0000000
B2   B   0.720498672224613   0.610366586239392   0.125000000000000   1.0000000
B2   B   0.555322846950834   0.111681843397035   0.125000000000000   1.0000000
B2   B   0.388905864574010   0.611085969590092   0.625000000000000   1.0000000
B2   B   0.889118840989187   0.111183678810029   0.125000000000000   1.0000000
B2   B   0.222182929279092   0.777759290964094   0.625000000000000   1.0000000
B2   B   0.055559110893723   0.277782093737104   0.625000000000000   1.0000000
B2   B   0.388920878839730   0.277817756692913   0.625000000000000   1.0000000
B2   B   0.555577086142963   0.777751070323114   0.625000000000000   1.0000000
B2   B   0.888863273530515   0.777732914486702   0.625000000000000   1.0000000
B2   B   0.722238244249255   0.277838403305966   0.625000000000000   1.0000000
B2   B   0.056172305830812   0.778683782342051   0.125000000000000   1.0000000
B2   B   0.388997441431232   0.778093855948843   0.125000000000000   1.0000000
B2   B   0.224067740508869   0.278394187146780   0.125000000000000   1.0000000
B2   B   0.722078722978394   0.778077996709655   0.125000000000000   1.0000000
B2   B   0.553536782546135   0.278299007273602   0.125000000000000   1.0000000
B2   B   0.888910037964570   0.277684676643073   0.125000000000000   1.0000000
B2   B   0.055534799010774   0.444444882434867   0.625000000000000   1.0000000
B2   B   0.222200374177480   0.944444238719569   0.625000000000000   1.0000000
B2   B   0.555568528357978   0.944450700023113   0.625000000000000   1.0000000
B2   B   0.388922974259519   0.444438061851740   0.625000000000000   1.0000000
B2   B   0.888888763014715   0.944419371402903   0.625000000000000   1.0000000
B2   B   0.056006967749229   0.945108226607762   0.125000000000000   1.0000000
B2   B   0.722232795102831   0.444492869881866   0.625000000000000   1.0000000
B2   B   0.388977431007704   0.944897772908207   0.125000000000000   1.0000000
B2   B   0.221820598692026   0.444389422218895   0.125000000000000   1.0000000
B2   B   0.222374168053056   0.611157046774354   0.125000000000000   1.0000000
B2   B   0.722264080350495   0.944618675225724   0.125000000000000   1.0000000
B2   B   0.888376395422848   0.444519151724419   0.125000000000000   1.0000000
B2   B   0.055495878655658   0.611088554848982   0.625000000000000   1.0000000
B2   B   0.222227577117573   0.111127334840012   0.625000000000000   1.0000000
B2   B   0.722232384748218   0.611076482166860   0.625000000000000   1.0000000
B2   B   0.555573862923061   0.111156270497212   0.625000000000000   1.0000000
B2   B   0.888898189210115   0.111113889446086   0.625000000000000   1.0000000
C2   C   0.446553036979634   0.386468069533117   0.125000000000000   1.0000000
C2   C   0.777818765922420   0.555540223184805   0.125000000000000   1.0000000
C2   C   0.390272612857050   0.278500882169641   0.125000000000000   1.0000000
C2   C   0.554179519106398   0.442775235159379   0.125000000000000   1.0000000


