data_1
_audit_creation_method   'vasp2cif'
_cell_length_a    17.52789999999977
_cell_length_b    17.52789999999977
_cell_length_c    15.0
_cell_angle_alpha    90.0
_cell_angle_beta    90.0
_cell_angle_gamma    119.99999999999916

_symmetry_space_group_name_H-M    'P 1'
loop_
_atom_site_label
_atom_site_type_symbol
_atom_site_fract_x
_atom_site_fract_y
_atom_site_fract_z
_atom_site_occupancy
Ga2   Ga   0.496243892664784   0.503757509252213   0.111206527174309   1.0000000
B2   B   0.905902534526515   0.953204082730748   0.111009984797113   1.0000000
B2   B   0.904581829739754   0.095420191456242   0.111028728897501   1.0000000
B2   B   0.904198982107457   0.238137700256569   0.111037518341872   1.0000000
B2   B   0.904338645824326   0.380944825954483   0.110989283436400   1.0000000
B2   B   0.905095543460205   0.523762253913653   0.111013475372740   1.0000000
B2   B   0.906228935821798   0.666897552006792   0.111072458068175   1.0000000
B2   B   0.907053612947463   0.810775569834647   0.111049473067021   1.0000000
B2   B   0.048169566417835   0.951832454778168   0.110998740968225   1.0000000
B2   B   0.046797938465255   0.094099486669482   0.111009984797113   1.0000000
B2   B   0.046449985325503   0.237212814019747   0.110986685952744   1.0000000
B2   B   0.046906102413025   0.380360782505886   0.111003314054561   1.0000000
B2   B   0.047967793270516   0.523275999490230   0.111003203444983   1.0000000
B2   B   0.048740972947594   0.666133322480036   0.111049276660336   1.0000000
B2   B   0.048770381342805   0.809094231359630   0.111039353800998   1.0000000
B2   B   0.190907789836374   0.951231639853198   0.111039353800998   1.0000000
B2   B   0.189226451361357   0.092948408248533   0.111049473067021   1.0000000
B2   B   0.187525334199085   0.234829195714626   0.111000090137080   1.0000000
B2   B   0.188753709036354   0.379125416443319   0.110985904447446   1.0000000
B2   B   0.190773711613520   0.522469582607945   0.111035138952236   1.0000000
B2   B   0.191810623152500   0.665535199018602   0.111025513264264   1.0000000
B2   B   0.191504721208952   0.808497299987051   0.110997547981491   1.0000000
B2   B   0.333868698716963   0.951261048248409   0.111049276660336   1.0000000
B2   B   0.333104469190208   0.093773085374199   0.111072458068175   1.0000000
B2   B   0.329926489758377   0.233813712506899   0.110998544038302   1.0000000
B2   B   0.327535938807858   0.375577438822375   0.111014063728884   1.0000000
B2   B   0.333834718761238   0.520365759941386   0.111100977726269   1.0000000
B2   B   0.335322746077772   0.664679275119226   0.111058172897547   1.0000000
B2   B   0.334466822178396   0.808191398043503   0.111025513264264   1.0000000
B2   B   0.476726021706769   0.952034227925488   0.111003203444983   1.0000000
B2   B   0.476239767283346   0.094906477735792   0.111013475372740   1.0000000
B2   B   0.475548425381460   0.237605542166679   0.111025172834381   1.0000000
B2   B   0.469551762810688   0.374968104752919   0.111177758653931   1.0000000
B2   B   0.479636261255612   0.666167302435760   0.111100977726269   1.0000000
B2   B   0.477532438589053   0.809228309582483   0.111035138952236   1.0000000
B2   B   0.619641238690117   0.953095918782979   0.111003314054561   1.0000000
B2   B   0.619057195241521   0.095663375371670   0.110989283436400   1.0000000
B2   B   0.618746278684787   0.238666585137643   0.111004918568659   1.0000000
B2   B   0.618023992010260   0.381978029185744   0.111026606687697   1.0000000
B2   B   0.625033916443085   0.530450258386311   0.111177758653931   1.0000000
B2   B   0.624424582373628   0.672466082389141   0.111014063728884   1.0000000
B2   B   0.620876604752685   0.811248312159650   0.110985904447446   1.0000000
B2   B   0.762789207176256   0.953552035870499   0.110986685952744   1.0000000
B2   B   0.761864320939435   0.095803039088539   0.111037518341872   1.0000000
B2   B   0.761529754745981   0.238472266450022   0.111030664503587   1.0000000
B2   B   0.761335436058361   0.381255742511217   0.111004918568659   1.0000000
B2   B   0.762396479029324   0.524453595815540   0.111025172834381   1.0000000
B2   B   0.766188308689104   0.670075531438621   0.110998544038302   1.0000000
B2   B   0.765172825481378   0.812476686996917   0.111000090137080   1.0000000
N2   N   0.953714438317220   0.905554540362443   0.110993439930214   1.0000000
N2   N   0.952226492408326   0.047774909509679   0.111001496016239   1.0000000
N2   N   0.951468462720487   0.190276336542230   0.111005779392545   1.0000000
N2   N   0.951649615967546   0.333146397675708   0.110989081733505   1.0000000
N2   N   0.952590988034453   0.476053369899550   0.110971004384939   1.0000000
N2   N   0.953639919987571   0.618992460165180   0.111052079661010   1.0000000
N2   N   0.954050523847152   0.762265608452827   0.111047635628078   1.0000000
N2   N   0.095899180463812   0.904102221454186   0.110994117919250   1.0000000
N2   N   0.094446861555555   0.046286963600786   0.110993439930214   1.0000000
N2   N   0.092854384760242   0.188417383869480   0.110982046490998   1.0000000
N2   N   0.093430178298808   0.332080555325883   0.110965257209036   1.0000000
N2   N   0.095052188617313   0.475464569844686   0.110993479826172   1.0000000
N2   N   0.096250781811830   0.618471145756433   0.111011973569551   1.0000000
N2   N   0.096359181332662   0.761328357715984   0.111006530984019   1.0000000
N2   N   0.238673044202022   0.903642220585337   0.111006530984019   1.0000000
N2   N   0.237735793465179   0.045950878070854   0.111047635628078   1.0000000
N2   N   0.234951478335110   0.186801399641282   0.111001704489456   1.0000000
N2   N   0.232880410485060   0.328584385719508   0.110962750032153   1.0000000
N2   N   0.237026793620525   0.474318119669943   0.111020733735925   1.0000000
N2   N   0.239219228895539   0.617925727774925   0.111020520986148   1.0000000
N2   N   0.239108387213845   0.760893014704161   0.110996609113377   1.0000000
N2   N   0.381530256161565   0.903750620106168   0.111011973569551   1.0000000
N2   N   0.381008941752818   0.046361481930435   0.111052079661010   1.0000000
N2   N   0.379886097481634   0.188202929538768   0.111020281343956   1.0000000
N2   N   0.374567310087276   0.326602493271314   0.110982123960361   1.0000000
N2   N   0.373979897675831   0.467884524434564   0.111063585274094   1.0000000
N2   N   0.382780625327201   0.617220776590797   0.111095249200496   1.0000000
N2   N   0.382075674143073   0.760782173022467   0.111020520986148   1.0000000
N2   N   0.524536832072310   0.904949213300686   0.110993479826172   1.0000000
N2   N   0.523948032017447   0.047410413883553   0.110971004384939   1.0000000
N2   N   0.523522304263380   0.190034273046732   0.110994027448199   1.0000000
N2   N   0.522589182373543   0.332639683708063   0.111040227398194   1.0000000
N2   N   0.532116877482433   0.626021504242168   0.111063585274094   1.0000000
N2   N   0.525683282247052   0.762974608297481   0.111020733735925   1.0000000
N2   N   0.667920846591113   0.906571223619190   0.110965257209036   1.0000000
N2   N   0.666855004241290   0.048351785950459   0.110989081733505   1.0000000
N2   N   0.666447089216654   0.190867782203412   0.110997641817904   1.0000000
N2   N   0.666162601251187   0.333838800665810   0.110975352061873   1.0000000
N2   N   0.667361718208934   0.477412219543454   0.111040227398194   1.0000000
N2   N   0.673398908645684   0.625434091830723   0.110982123960361   1.0000000
N2   N   0.671417016197490   0.767120991432946   0.110962750032153   1.0000000
N2   N   0.811584018048518   0.907147017157756   0.110982046490998   1.0000000
N2   N   0.809725065375768   0.048532939197518   0.111005779392545   1.0000000
N2   N   0.809143756950130   0.190857644967869   0.111038003610690   1.0000000
N2   N   0.809133619714586   0.333554312700343   0.110997641817904   1.0000000
N2   N   0.809967128871267   0.476479097653616   0.110994027448199   1.0000000
N2   N   0.811798472379231   0.620115304436364   0.111020281343956   1.0000000
N2   N   0.813200002276716   0.765049923582896   0.111001704489456   1.0000000


