data_1
_audit_creation_method   'vasp2cif'
_cell_length_a    17.52789999999977
_cell_length_b    17.52789999999977
_cell_length_c    15.0
_cell_angle_alpha    90.0
_cell_angle_beta    90.0
_cell_angle_gamma    119.99999999999916

_symmetry_space_group_name_H-M    'P 1'
loop_
_atom_site_label
_atom_site_type_symbol
_atom_site_fract_x
_atom_site_fract_y
_atom_site_fract_z
_atom_site_occupancy
Si2   Si   0.441724519057743   0.506471268291615   0.110997640618926   1.0000000
B2   B   0.905715397854659   0.952811717143885   0.110151661148367   1.0000000
B2   B   0.907645205332275   0.096844491804443   0.110672085924386   1.0000000
B2   B   0.908220746624391   0.239695981357849   0.110680920159168   1.0000000
B2   B   0.907645354454686   0.381977197445554   0.110651508194615   1.0000000
B2   B   0.905711904686270   0.524085166234361   0.111107827103770   1.0000000
B2   B   0.904056013906434   0.666300603707531   0.110624689752000   1.0000000
B2   B   0.904046699479129   0.808953977864814   0.110592193772998   1.0000000
B2   B   0.047856381388677   0.952179902060000   0.110222400785576   1.0000000
B2   B   0.049950359703864   0.096459946113267   0.110913303227841   1.0000000
B2   B   0.051867676074662   0.240397443220429   0.112101392176498   1.0000000
B2   B   0.051864620479179   0.382645950580988   0.109447090143604   1.0000000
B2   B   0.049947781971320   0.524670387216319   0.110490049601346   1.0000000
B2   B   0.047877585363796   0.666886880911016   0.111012074368072   1.0000000
B2   B   0.047387253965095   0.809296505972695   0.110578694198466   1.0000000
B2   B   0.190723403530000   0.952085778444874   0.110170398690629   1.0000000
B2   B   0.191262489205143   0.094794465704143   0.111515236943962   1.0000000
B2   B   0.194472494549528   0.240103586509715   0.118213082187564   1.0000000
B2   B   0.197388751888282   0.384296256846221   0.110944463334247   1.0000000
B2   B   0.194470995118154   0.525579432264534   0.103693894811478   1.0000000
B2   B   0.191284996865220   0.667693986029881   0.110108918549066   1.0000000
B2   B   0.190741390562722   0.809869610204583   0.111064332764192   1.0000000
B2   B   0.334094474503977   0.952639271167265   0.110632414444273   1.0000000
B2   B   0.334133988224336   0.094031763513724   0.109691550965408   1.0000000
B2   B   0.334248399897675   0.235077184363309   0.114707468277118   1.0000000
B2   B   0.340040184784976   0.379032590664350   0.139097002528608   1.0000000
B2   B   0.340049968724610   0.532216919896516   0.083165887873724   1.0000000
B2   B   0.334281306052429   0.670370301340359   0.107533923441979   1.0000000
B2   B   0.334152952478526   0.811310054353671   0.111916047651331   1.0000000
B2   B   0.477744922632909   0.953762573598595   0.110914409117929   1.0000000
B2   B   0.477738461309069   0.095151526843975   0.110378612390145   1.0000000
B2   B   0.477616755631826   0.236432814304728   0.110342685344484   1.0000000
B2   B   0.477398296809588   0.377193737630678   0.108923032207651   1.0000000
B2   B   0.477470220522020   0.671420279136271   0.113058793760323   1.0000000
B2   B   0.477639804592651   0.812373616009758   0.111384991589360   1.0000000
B2   B   0.621189357640963   0.954048298972195   0.110847518640809   1.0000000
B2   B   0.621366708290599   0.096265934578959   0.110576059014366   1.0000000
B2   B   0.621188711969712   0.238310611612813   0.110477344322419   1.0000000
B2   B   0.620398437050181   0.380353372759622   0.108429616682607   1.0000000
B2   B   0.615405742646274   0.521697839804785   0.103956458180116   1.0000000
B2   B   0.615456039469435   0.664912504354872   0.117298222010094   1.0000000
B2   B   0.620448458904404   0.811243232564717   0.112941554471148   1.0000000
B2   B   0.763861393923453   0.953651856584195   0.110676747913771   1.0000000
B2   B   0.764675224616960   0.096693536271425   0.110655450302048   1.0000000
B2   B   0.764683475679907   0.239143602303186   0.110571285111126   1.0000000
B2   B   0.763864469980617   0.381362802784167   0.110534595795251   1.0000000
B2   B   0.761235791990994   0.523375962776542   0.109730515347045   1.0000000
B2   B   0.759556701749100   0.665374979761415   0.110565184893476   1.0000000
B2   B   0.761240135690114   0.809049352162405   0.111464517763076   1.0000000
N2   N   0.952512576304646   0.904486057435711   0.110231440688676   1.0000000
N2   N   0.954455801310063   0.048560338118566   0.110220904947469   1.0000000
N2   N   0.956176233798757   0.192409898039537   0.111107798030721   1.0000000
N2   N   0.956177362420210   0.334954775417060   0.110269672738917   1.0000000
N2   N   0.954455372870883   0.477079577609601   0.111070810010472   1.0000000
N2   N   0.952519369282511   0.619215025325333   0.110981854803863   1.0000000
N2   N   0.951941521994654   0.761569319072436   0.110592635261873   1.0000000
N2   N   0.095389948222494   0.904538545840630   0.110322775833277   1.0000000
N2   N   0.096211086444724   0.047607154317493   0.110500669646470   1.0000000
N2   N   0.098984398785365   0.192356988309744   0.112759560661615   1.0000000
N2   N   0.100979148061688   0.336084809791477   0.110809528590321   1.0000000
N2   N   0.098967382765439   0.477814413787330   0.108806817250568   1.0000000
N2   N   0.096215820595741   0.619793870801409   0.110816863440644   1.0000000
N2   N   0.095396120164151   0.762060542588865   0.110818041607550   1.0000000
N2   N   0.238655762536742   0.904938152485565   0.110582202893715   1.0000000
N2   N   0.238805184205284   0.047160106739669   0.109909907635156   1.0000000
N2   N   0.239564610085868   0.189982811323103   0.115219853400396   1.0000000
N2   N   0.244683030364506   0.336645162087575   0.126635565822244   1.0000000
N2   N   0.244672480577280   0.479254417598800   0.095343286961269   1.0000000
N2   N   0.239572060359508   0.620785756975277   0.106820871808033   1.0000000
N2   N   0.238820574886614   0.762866538893767   0.111531940854602   1.0000000
N2   N   0.382285365902532   0.906081324820886   0.111336421954003   1.0000000
N2   N   0.382275244511423   0.047393441148630   0.109974801237489   1.0000000
N2   N   0.382295909320853   0.188641062902716   0.109845847255246   1.0000000
N2   N   0.382764549350936   0.329277876208989   0.121282369890266   1.0000000
N2   N   0.382767382262198   0.624651929919760   0.101240813832844   1.0000000
N2   N   0.382306882585700   0.764855938780445   0.112086029960513   1.0000000
N2   N   0.525814750227875   0.907023438651406   0.110895151099375   1.0000000
N2   N   0.525913607932289   0.048546454715381   0.110555623362230   1.0000000
N2   N   0.525812004190270   0.189973961590064   0.110523106842309   1.0000000
N2   N   0.525485705476573   0.331098390849287   0.109274558466290   1.0000000
N2   N   0.519642207692721   0.470724010544634   0.096650954801902   1.0000000
N2   N   0.519745505370851   0.620145538676554   0.125030965807426   1.0000000
N2   N   0.525511600640666   0.765580168229342   0.112370761886466   1.0000000
N2   N   0.668686137758369   0.906411337445615   0.111217800950317   1.0000000
N2   N   0.669285924180438   0.049119801399615   0.110614953300392   1.0000000
N2   N   0.669287293771297   0.191343552486749   0.110555966222451   1.0000000
N2   N   0.668673014603380   0.333451954862724   0.110045264937557   1.0000000
N2   N   0.665584036842207   0.475503527311968   0.107360883005655   1.0000000
N2   N   0.663391279916227   0.617277639892394   0.110502899409882   1.0000000
N2   N   0.665617652667829   0.761273123829932   0.113840450449394   1.0000000
N2   N   0.810206523112200   0.904892780780448   0.110343200906484   1.0000000
N2   N   0.812203704161571   0.049079416880480   0.110569716225716   1.0000000
N2   N   0.812700134234853   0.191929749764640   0.110615474223554   1.0000000
N2   N   0.812205439461519   0.334302319551708   0.110642196511772   1.0000000
N2   N   0.810198337303979   0.476484186761735   0.110840957282451   1.0000000
N2   N   0.808393985852170   0.618567159143459   0.110101421490937   1.0000000
N2   N   0.808398548714426   0.761010593358253   0.111050787510768   1.0000000


