data_1
_audit_creation_method   'vasp2cif'
_cell_length_a    17.52789999999977
_cell_length_b    17.52789999999977
_cell_length_c    15.0
_cell_angle_alpha    90.0
_cell_angle_beta    90.0
_cell_angle_gamma    119.99999999999916

_symmetry_space_group_name_H-M    'P 1'
loop_
_atom_site_label
_atom_site_type_symbol
_atom_site_fract_x
_atom_site_fract_y
_atom_site_fract_z
_atom_site_occupancy
B2   B   0.903958617206641   0.951500524997622   0.111017952103729   1.0000000
B2   B   0.905291103462535   0.094710917733490   0.111093182988201   1.0000000
B2   B   0.905805720220721   0.237479746614435   0.111090789981011   1.0000000
B2   B   0.906005966545859   0.380400005863783   0.111007188403761   1.0000000
B2   B   0.906018362658812   0.523499052250605   0.111098753631980   1.0000000
B2   B   0.904049018528716   0.666330401125447   0.111142337297367   1.0000000
B2   B   0.903037879602702   0.808474140325969   0.111045214005370   1.0000000
B2   B   0.047186625253325   0.952815395942652   0.111029530139648   1.0000000
B2   B   0.048501496198367   0.096043403989391   0.111017952103729   1.0000000
B2   B   0.048758034676822   0.238452781466720   0.110937000642551   1.0000000
B2   B   0.048220757316153   0.381181823507561   0.111050832715206   1.0000000
B2   B   0.047217502068080   0.524250330033528   0.110976876911186   1.0000000
B2   B   0.046633127195384   0.667309162576752   0.111041698076543   1.0000000
B2   B   0.046590725502900   0.810003748119974   0.111041572680679   1.0000000
B2   B   0.189998273076037   0.953411295693079   0.111041572680679   1.0000000
B2   B   0.191527880870062   0.096964141593314   0.111045214005370   1.0000000
B2   B   0.193022261322960   0.240790030803498   0.110840624602004   1.0000000
B2   B   0.191273217392894   0.382276368853714   0.111002010720994   1.0000000
B2   B   0.188284462973307   0.525111562458721   0.111308300486241   1.0000000
B2   B   0.188515398248451   0.668186378809881   0.111125001367648   1.0000000
B2   B   0.189263812814348   0.810738208381696   0.110975992708815   1.0000000
B2   B   0.332692858620242   0.953368894000639   0.111041698076543   1.0000000
B2   B   0.333671620071539   0.095953002667305   0.111142337297367   1.0000000
B2   B   0.336251720506155   0.240529283654161   0.110930315002883   1.0000000
B2   B   0.338099720252130   0.384471669381571   0.111855127622840   1.0000000
B2   B   0.328712621981847   0.529337690723904   0.110640391591108   1.0000000
B2   B   0.329901845218293   0.670100175978702   0.111096997755636   1.0000000
B2   B   0.331815642387110   0.811486622947514   0.111125001367648   1.0000000
B2   B   0.475751691163552   0.952784519127963   0.110976876911186   1.0000000
B2   B   0.476502968946365   0.093983658537227   0.111098753631980   1.0000000
B2   B   0.477681640412877   0.234897617852017   0.111237290122065   1.0000000
B2   B   0.481822990368231   0.376807307033718   0.110551637636945   1.0000000
B2   B   0.470664330473110   0.671289399215166   0.110640391591105   1.0000000
B2   B   0.474890458738277   0.811717558222662   0.111308300486241   1.0000000
B2   B   0.618820197688468   0.951781263879840   0.111050832715206   1.0000000
B2   B   0.619602015332239   0.093996054650116   0.111007188403761   1.0000000
B2   B   0.620521911978575   0.235878140670216   0.111180939820920   1.0000000
B2   B   0.622239969075886   0.377762052120110   0.111160750731665   1.0000000
B2   B   0.623194714162288   0.518179030828853   0.110551637636945   1.0000000
B2   B   0.615530351814427   0.661902300944823   0.111855127622840   1.0000000
B2   B   0.617725652342297   0.808728803803108   0.111002010720994   1.0000000
B2   B   0.761549239729264   0.951243986519204   0.110937000642551   1.0000000
B2   B   0.762522274581581   0.094196300975283   0.111090789981010   1.0000000
B2   B   0.763213649393495   0.236788371802559   0.110968234121452   1.0000000
B2   B   0.764123880525780   0.379480109217482   0.111180939820920   1.0000000
B2   B   0.765104403343954   0.522320380784075   0.111237290122065   1.0000000
B2   B   0.759472737541860   0.663750300690802   0.110930315002883   1.0000000
B2   B   0.759211990392490   0.806979759873044   0.110840624602004   1.0000000
N2   N   0.951459523586530   0.904078865389137   0.111007204982238   1.0000000
N2   N   0.952757009495815   0.047244392422215   0.111038905242557   1.0000000
N2   N   0.953513056216555   0.190149036633082   0.111051570186535   1.0000000
N2   N   0.953439289230777   0.332798755641447   0.111030124532770   1.0000000
N2   N   0.952916617076121   0.475736092459993   0.110954663710677   1.0000000
N2   N   0.951797447359013   0.618918564684653   0.111112089635620   1.0000000
N2   N   0.951212984347715   0.761610627356054   0.111086371457570   1.0000000
N2   N   0.094649507161182   0.905351894756803   0.110972165785894   1.0000000
N2   N   0.095922536528850   0.048541878331419   0.111007204982238   1.0000000
N2   N   0.097315256310131   0.191980951596944   0.110880632736127   1.0000000
N2   N   0.096509269468435   0.333979456811230   0.110932437711627   1.0000000
N2   N   0.094271383995346   0.476514108097311   0.111073067245301   1.0000000
N2   N   0.093963304530141   0.619662757480189   0.110986645794299   1.0000000
N2   N   0.094162543420091   0.762572332508400   0.111006738843182   1.0000000
N2   N   0.237429069409598   0.905838858497910   0.111006738843182   1.0000000
N2   N   0.238390774561923   0.048788417570254   0.111086371457570   1.0000000
N2   N   0.240551204238566   0.193045959955032   0.111018336187631   1.0000000
N2   N   0.242055779010265   0.337357031252636   0.111001623580323   1.0000000
N2   N   0.235680303163081   0.477828046668226   0.111260153049583   1.0000000
N2   N   0.235761055708808   0.620564993975374   0.111202824274646   1.0000000
N2   N   0.236744865110700   0.763256536807321   0.111008445547775   1.0000000
N2   N   0.380338644437828   0.906038097387834   0.110986645794299   1.0000000
N2   N   0.381082837233368   0.048203954558925   0.111112089635620   1.0000000
N2   N   0.382328838239085   0.191272831195175   0.111054289811105   1.0000000
N2   N   0.386350734223945   0.337577256248682   0.110925539455142   1.0000000
N2   N   0.378039647059047   0.484259072387877   0.110736583460915   1.0000000
N2   N   0.377318448415060   0.622682953502984   0.110715396957325   1.0000000
N2   N   0.379436407942645   0.764240346209159   0.111202824274646   1.0000000
N2   N   0.523487293819666   0.905730017922644   0.111073067245301   1.0000000
N2   N   0.524265309457041   0.047084784841905   0.110954663710677   1.0000000
N2   N   0.525199403895342   0.188209996722066   0.111212487296113   1.0000000
N2   N   0.526896120346390   0.328437998447105   0.111139707749271   1.0000000
N2   N   0.515742329529124   0.621961754858980   0.110736583460915   1.0000000
N2   N   0.522173355248740   0.764321098754956   0.111260153049583   1.0000000
N2   N   0.666021945105837   0.903492132449577   0.110932437711627   1.0000000
N2   N   0.667202646275582   0.046562112687230   0.111030124532770   1.0000000
N2   N   0.668046084232003   0.188819111454576   0.110989934395050   1.0000000
N2   N   0.669210238794362   0.330791163122642   0.111209143574767   1.0000000
N2   N   0.671563403469882   0.473105281570538   0.111139707749271   1.0000000
N2   N   0.662424145668348   0.613650667694054   0.110925539455142   1.0000000
N2   N   0.662644370664361   0.757945622907746   0.111001623580323   1.0000000
N2   N   0.808020450321040   0.902686145607893   0.110880632736127   1.0000000
N2   N   0.809852365284933   0.046488345701409   0.111051570186535   1.0000000
N2   N   0.810657271194793   0.189344130723229   0.111052869670126   1.0000000
N2   N   0.811182290463438   0.331955317684945   0.110989934395050   1.0000000
N2   N   0.811791405195923   0.474801998021585   0.111212487296113   1.0000000
N2   N   0.808728570722841   0.617672563678887   0.111054289811105   1.0000000
N2   N   0.806955441962973   0.759450197679397   0.111018336187631   1.0000000
O2   O   0.466674016013422   0.533328005183561   0.110086734715585   1.0000000
O2   O   0.535493730969066   0.464507670947926   0.109981887023045   1.0000000


