data_1
_audit_creation_method   'vasp2cif'
_cell_length_a    17.52789999999977
_cell_length_b    17.52789999999977
_cell_length_c    15.0
_cell_angle_alpha    90.0
_cell_angle_beta    90.0
_cell_angle_gamma    119.99999999999916

_symmetry_space_group_name_H-M    'P 1'
loop_
_atom_site_label
_atom_site_type_symbol
_atom_site_fract_x
_atom_site_fract_y
_atom_site_fract_z
_atom_site_occupancy
Ga2   Ga   0.436772643255456   0.504101524251728   0.111286709113610   1.0000000
B2   B   0.904852620983331   0.952570920529168   0.110985807703077   1.0000000
B2   B   0.906173493908802   0.096230122258829   0.111029823817461   1.0000000
B2   B   0.906534966998875   0.238981830344939   0.111092177136749   1.0000000
B2   B   0.906173493908802   0.381372065340970   0.111029823817461   1.0000000
B2   B   0.904852620983331   0.523712105702163   0.110985807703077   1.0000000
B2   B   0.903285635676452   0.666023114659605   0.111039409051573   1.0000000
B2   B   0.903285635676452   0.808692926264847   0.111039409051573   1.0000000
B2   B   0.046878193614693   0.951721975890246   0.110990499657520   1.0000000
B2   B   0.048218695840289   0.095409898096299   0.111004021699446   1.0000000
B2   B   0.049647571381803   0.239270987629043   0.111030187418422   1.0000000
B2   B   0.049647571381803   0.381806988999759   0.111030187418422   1.0000000
B2   B   0.048218695840289   0.524239202991985   0.111004021699446   1.0000000
B2   B   0.046878193614693   0.666588334528444   0.110990499657520   1.0000000
B2   B   0.046531336230744   0.808981726517374   0.110960154410232   1.0000000
B2   B   0.189770949682791   0.951636510786536   0.110986625942250   1.0000000
B2   B   0.190108415250294   0.094090362208992   0.111063014083901   1.0000000
B2   B   0.191692524628160   0.238019524890885   0.111038169788096   1.0000000
B2   B   0.193907522742388   0.382668963994693   0.111019090297937   1.0000000
B2   B   0.191692524628160   0.525103404985278   0.111038169788096   1.0000000
B2   B   0.190108415250294   0.667448458289296   0.111063014083901   1.0000000
B2   B   0.189770949682791   0.809566555700260   0.110986625942250   1.0000000
B2   B   0.333111465822255   0.952271791312630   0.111014274986348   1.0000000
B2   B   0.333187794759713   0.093248725458984   0.111080121212825   1.0000000
B2   B   0.333399197033538   0.233943211756950   0.111065743554613   1.0000000
B2   B   0.335167758452923   0.375108356216176   0.111122283752789   1.0000000
B2   B   0.335167758452923   0.531489807483745   0.111122283752789   1.0000000
B2   B   0.333399197033538   0.670886390523588   0.111065743554613   1.0000000
B2   B   0.333187794759713   0.811369474547729   0.111080121212825   1.0000000
B2   B   0.476797969791408   0.953705509040839   0.111006959303619   1.0000000
B2   B   0.476797969791408   0.094522865997570   0.111006959303619   1.0000000
B2   B   0.476879193749524   0.235235580319384   0.111035409552686   1.0000000
B2   B   0.477629750606891   0.375935397644499   0.111011143454514   1.0000000
B2   B   0.477629750606891   0.673124758209393   0.111011143454514   1.0000000
B2   B   0.476879193749524   0.813074018677148   0.111035409552686   1.0000000
B2   B   0.620319944400034   0.954078978459727   0.110990083465381   1.0000000
B2   B   0.620320249874006   0.095874471782498   0.110971997314453   1.0000000
B2   B   0.620319944400034   0.237671371187306   0.110990083465381   1.0000000
B2   B   0.619991669228925   0.379626393611515   0.110998584828252   1.0000000
B2   B   0.615997909768681   0.520798001327195   0.111055861393751   1.0000000
B2   B   0.615997909768680   0.666630313689480   0.111055861393751   1.0000000
B2   B   0.619991669228925   0.811795680864411   0.110998584828252   1.0000000
B2   B   0.763016647343910   0.953626703078331   0.110982982861827   1.0000000
B2   B   0.763445487608007   0.096299430497340   0.111022663103367   1.0000000
B2   B   0.763445487608007   0.238574750801664   0.111022663103367   1.0000000
B2   B   0.763016647343910   0.380820349512580   0.110982982861827   1.0000000
B2   B   0.761255987160461   0.522969766460698   0.111039082660737   1.0000000
B2   B   0.758863590073661   0.665146997660828   0.111089370675089   1.0000000
B2   B   0.761255987160461   0.809716625947764   0.111039082660737   1.0000000
N2   N   0.951729151402700   0.904243438089001   0.110986848378194   1.0000000
N2   N   0.953005535035079   0.047949240511429   0.110974986066127   1.0000000
N2   N   0.954087682765997   0.191452208057938   0.111046209503688   1.0000000
N2   N   0.954087682765997   0.334062456826058   0.111046209503688   1.0000000
N2   N   0.953005535035079   0.476483276641650   0.110974986066127   1.0000000
N2   N   0.951729151402700   0.618914406988695   0.110986848378194   1.0000000
N2   N   0.951337190747770   0.761382942211387   0.110999386740375   1.0000000
N2   N   0.094449356487336   0.904101735796051   0.110944475043530   1.0000000
N2   N   0.094822210091757   0.046789057263788   0.110997533995973   1.0000000
N2   N   0.096145897111329   0.190539482335482   0.111000012080059   1.0000000
N2   N   0.097538769990412   0.334483731832206   0.110991001281058   1.0000000
N2   N   0.096145897111329   0.477035108449849   0.111000012080059   1.0000000
N2   N   0.094822210091757   0.619461846502971   0.110997533995973   1.0000000
N2   N   0.094449356487336   0.761778025922292   0.110944475043530   1.0000000
N2   N   0.237661029060024   0.904545717145511   0.110961061447602   1.0000000
N2   N   0.237678726301231   0.046309356253763   0.111039243013504   1.0000000
N2   N   0.237838281058456   0.188497366768120   0.111063602446464   1.0000000
N2   N   0.239826505047157   0.333080109864174   0.111028619784595   1.0000000
N2   N   0.239826505047157   0.478175088856977   0.111028619784595   1.0000000
N2   N   0.237838281058456   0.620769607965333   0.111063602446464   1.0000000
N2   N   0.237678726301231   0.762798063722472   0.111039243013504   1.0000000
N2   N   0.381334406468105   0.906092419658669   0.111017637294660   1.0000000
N2   N   0.381334406468105   0.046670680484440   0.111017637294660   1.0000000
N2   N   0.381402764558371   0.187051829291756   0.111069901527053   1.0000000
N2   N   0.381621268712392   0.326701523089900   0.111000367855943   1.0000000
N2   N   0.381621268712392   0.626348439297486   0.111000367855943   1.0000000
N2   N   0.381402764558371   0.765779628941619   0.111069901527053   1.0000000
N2   N   0.525118982519220   0.907717276337746   0.110999717908195   1.0000000
N2   N   0.525047637093978   0.048237309606492   0.110958100270753   1.0000000
N2   N   0.525118982519221   0.188830399856478   0.110999717908195   1.0000000
N2   N   0.525320743154390   0.328999108860615   0.110986871801938   1.0000000
N2   N   0.523371903368931   0.468272079416295   0.111027429386967   1.0000000
N2   N   0.523371903368932   0.626528517627633   0.111027429386967   1.0000000
N2   N   0.525320743154390   0.767750327968781   0.110986871801938   1.0000000
N2   N   0.668231277177251   0.907115962899112   0.110971137990787   1.0000000
N2   N   0.668324192260228   0.049034248386828   0.110965367274824   1.0000000
N2   N   0.668324192260228   0.190716925992406   0.110965367274824   1.0000000
N2   N   0.668231277177251   0.332544007953141   0.110971137990787   1.0000000
N2   N   0.666852514083824   0.474815048376123   0.111012712389032   1.0000000
N2   N   0.663931285301240   0.617679989488620   0.111060722165972   1.0000000
N2   N   0.666852514083824   0.763466159382702   0.111012712389032   1.0000000
N2   N   0.809959055177959   0.905455925517741   0.110976930767585   1.0000000
N2   N   0.811050425068622   0.048892602255829   0.110994893368759   1.0000000
N2   N   0.811267960001486   0.191347471059746   0.111051667423367   1.0000000
N2   N   0.811050425068622   0.333584804930798   0.110994893368759   1.0000000
N2   N   0.809959055177959   0.475931823334219   0.110976930767585   1.0000000
N2   N   0.808264264924397   0.618429458361488   0.111061244023241   1.0000000
N2   N   0.808264264924397   0.761263500237909   0.111061244023241   1.0000000


