data_1
_audit_creation_method   'vasp2cif'
_cell_length_a    14.93631414619966
_cell_length_b    14.936314146199727
_cell_length_c    13.341276283792837
_cell_angle_alpha    90.0
_cell_angle_beta    90.0
_cell_angle_gamma    119.99999999999984

_symmetry_space_group_name_H-M    'P 1'
loop_
_atom_site_label
_atom_site_type_symbol
_atom_site_fract_x
_atom_site_fract_y
_atom_site_fract_z
_atom_site_occupancy
N2   N   0.435265937613378   0.384299635473351   0.375000000000000   1.0000000
N2   N   0.111004855372538   0.055518230915152   0.124732001093029   1.0000000
N2   N   0.611068947850727   0.555494455686372   0.124452931763595   1.0000000
N2   N   0.444346135150793   0.055538142217233   0.124858531099152   1.0000000
N2   N   0.944392027118561   0.555524008358980   0.124740031341593   1.0000000
N2   N   0.777631878233308   0.055482605783318   0.124786062279286   1.0000000
N2   N   0.111042694337839   0.722188013835571   0.625297935786019   1.0000000
N2   N   0.444346135150793   0.722141326266897   0.625141468900846   1.0000000
N2   N   0.277674740520230   0.222193579824819   0.625195197740344   1.0000000
N2   N   0.777715209387942   0.722175737938167   0.625271646142946   1.0000000
N2   N   0.611010822962554   0.222221423574647   0.625118226499514   1.0000000
N2   N   0.944309793887945   0.222155642695013   0.625318228323279   1.0000000
N2   N   0.277693504401879   0.722166133281614   0.124732260776890   1.0000000
N2   N   0.110969190781952   0.222151262057636   0.124668508389461   1.0000000
N2   N   0.444376364527224   0.222235981812955   0.124816915638446   1.0000000
N2   N   0.611010822962554   0.722122732721262   0.124881773500484   1.0000000
N2   N   0.944392027118561   0.722201352092898   0.124740031341593   1.0000000
N2   N   0.777658505429620   0.222179310303254   0.124807294480948   1.0000000
N2   N   0.111036592164410   0.888866911627520   0.625275626035119   1.0000000
N2   N   0.444333616659530   0.888833474996429   0.625199067931252   1.0000000
N2   N   0.277674740520230   0.388814494028740   0.625195197740344   1.0000000
N2   N   0.611068947850727   0.388907825497695   0.625547068236408   1.0000000
N2   N   0.777658505429620   0.888812528459687   0.625192705519066   1.0000000
N2   N   0.944354864016316   0.388838790182590   0.625277632776062   1.0000000
N2   N   0.111004855372538   0.388819957790717   0.124732001093029   1.0000000
N2   N   0.277693504401879   0.888860704453599   0.124732260776890   1.0000000
N2   N   0.610981124966320   0.888804301119764   0.124862326264549   1.0000000
N2   N   0.444353419763473   0.388843376548403   0.124062151694729   1.0000000
N2   N   0.944354864016316   0.888849407167074   0.124722367223941   1.0000000
N2   N   0.777715209387942   0.388872804783105   0.124728353857056   1.0000000
N2   N   0.277693631827053   0.555481473130630   0.625188132935634   1.0000000
N2   N   0.111004855372538   0.055518230915152   0.625267998906971   1.0000000
N2   N   0.611068947850727   0.555494455686372   0.625547068236408   1.0000000
N2   N   0.444346135150793   0.055538142217233   0.625141468900846   1.0000000
N2   N   0.944392027118561   0.555524008358980   0.625259968658405   1.0000000
N2   N   0.111036592164410   0.555503013870223   0.124724373964885   1.0000000
N2   N   0.777631878233308   0.055482605783317   0.625213937720724   1.0000000
N2   N   0.277693631827053   0.055545492029753   0.124811867064381   1.0000000
N2   N   0.444376364527224   0.555473716047592   0.124816915638446   1.0000000
N2   N   0.777750107820585   0.555541720576970   0.124719297144004   1.0000000
N2   N   0.610981124966320   0.055510157179877   0.124862326264549   1.0000000
N2   N   0.444376364527224   0.555473716047592   0.625183084361539   1.0000000
N2   N   0.944309793887945   0.055487484526256   0.124681771676713   1.0000000
N2   N   0.277693504401879   0.722166133281614   0.625267739223101   1.0000000
N2   N   0.110969190781952   0.222151262057636   0.625331491610536   1.0000000
N2   N   0.444376364527224   0.222235981812956   0.625183084361539   1.0000000
N2   N   0.611010822962554   0.722122732721262   0.625118226499514   1.0000000
N2   N   0.944392027118561   0.722201352092898   0.625259968658405   1.0000000
N2   N   0.777658505429620   0.222179310303254   0.625192705519066   1.0000000
N2   N   0.111042694337839   0.722188013835571   0.124702064213979   1.0000000
N2   N   0.444346135150793   0.722141326266897   0.124858531099152   1.0000000
N2   N   0.277674740520230   0.222193579824819   0.124804802259658   1.0000000
N2   N   0.777715209387942   0.722175737938167   0.124728353857056   1.0000000
N2   N   0.611010822962554   0.222221423574647   0.124881773500484   1.0000000
N2   N   0.944309793887945   0.222155642695013   0.124681771676713   1.0000000
N2   N   0.111004855372538   0.388819957790717   0.625267998906971   1.0000000
N2   N   0.277693504401879   0.888860704453599   0.625267739223098   1.0000000
N2   N   0.610981124966320   0.888804301119764   0.625137673735461   1.0000000
N2   N   0.444353419763473   0.388843376548403   0.625937848305281   1.0000000
N2   N   0.944354864016316   0.888849407167074   0.625277632776059   1.0000000
N2   N   0.111036592164410   0.888866911627520   0.124724373964885   1.0000000
N2   N   0.777715209387942   0.388872804783105   0.625271646142946   1.0000000
N2   N   0.444333616659530   0.888833474996429   0.124800932068748   1.0000000
N2   N   0.277674740520230   0.388814494028740   0.124804802259658   1.0000000
N2   N   0.277693631827053   0.555481473130630   0.124811867064381   1.0000000
N2   N   0.611068947850727   0.388907825497695   0.124452931763596   1.0000000
N2   N   0.777658505429620   0.888812528459687   0.124807294480948   1.0000000
N2   N   0.944354864016316   0.388838790182590   0.124722367223941   1.0000000
N2   N   0.111036592164410   0.555503013870223   0.625275626035119   1.0000000
N2   N   0.277693631827053   0.055545492029753   0.625188132935634   1.0000000
N2   N   0.777750107820585   0.555541720576970   0.625280702855999   1.0000000
N2   N   0.610981124966320   0.055510157179877   0.625137673735461   1.0000000
N2   N   0.944309793887945   0.055487484526256   0.625318228323279   1.0000000
N2   N   0.051879373672140   0.108839732283189   0.375000000000000   1.0000000
N2   N   0.556940418865427   0.597189171708143   0.375000000000000   1.0000000
N2   N   0.390608122658947   0.117645292129495   0.375000000000000   1.0000000
N2   N   0.895279487610575   0.614306410471952   0.375000000000000   1.0000000
N2   N   0.720612542898303   0.111595131576131   0.375000000000000   1.0000000
N2   N   0.055562733317210   0.777783508862524   0.875000000000000   1.0000000
N2   N   0.388902269982946   0.777784828361589   0.875000000000000   1.0000000
N2   N   0.222227979351556   0.277780656342451   0.875000000000000   1.0000000
N2   N   0.722230271441205   0.777779576608384   0.875000000000000   1.0000000
N2   N   0.555563268517674   0.277780918314751   0.875000000000000   1.0000000
N2   N   0.888900107480364   0.277786537756719   0.875000000000000   1.0000000
N2   N   0.225597608752246   0.779465471042788   0.375000000000000   1.0000000
N2   N   0.051879373672140   0.276372974722287   0.375000000000000   1.0000000
N2   N   0.381567378176622   0.279566006127831   0.375000000000000   1.0000000
N2   N   0.556023885881304   0.772271025864751   0.375000000000000   1.0000000
N2   N   0.891102159553748   0.778283445574538   0.375000000000000   1.0000000
N2   N   0.721505476864815   0.280729254356974   0.375000000000000   1.0000000
N2   N   0.055561288355558   0.944444614722402   0.875000000000000   1.0000000
N2   N   0.388902269982946   0.944450774954695   0.875000000000000   1.0000000
N2   N   0.222231506632900   0.444449402031983   0.875000000000000   1.0000000
N2   N   0.555567520318842   0.444450426826088   0.875000000000000   1.0000000
N2   N   0.722229883404298   0.944449436070474   0.875000000000000   1.0000000
N2   N   0.888897522118814   0.444448949641911   0.875000000000000   1.0000000
N2   N   0.055695160504150   0.444588937075611   0.375000000000000   1.0000000
N2   N   0.224787070698636   0.947152754144675   0.375000000000000   1.0000000
N2   N   0.555910192942384   0.944621763137863   0.375000000000000   1.0000000
N2   N   0.381567378176622   0.435334705382115   0.375000000000000   1.0000000
N2   N   0.886898645067363   0.942364798015056   0.375000000000000   1.0000000
N2   N   0.727640938941095   0.449288748022217   0.375000000000000   1.0000000
N2   N   0.222230832388835   0.611117161610338   0.875000000000000   1.0000000
N2   N   0.055564402566283   0.111114354864918   0.875000000000000   1.0000000
N2   N   0.555563268517674   0.611115683536265   0.875000000000000   1.0000000
N2   N   0.388900391705006   0.111112845981402   0.875000000000000   1.0000000
N2   N   0.888896428775861   0.611114881054606   0.875000000000000   1.0000000
N2   N   0.059469049472511   0.612702132705317   0.375000000000000   1.0000000
N2   N   0.722229883404298   0.111113780667161   0.875000000000000   1.0000000
N2   N   0.220141523875426   0.110736549240841   0.375000000000000   1.0000000
N2   N   0.390608122658947   0.606296163862795   0.375000000000000   1.0000000
N2   N   0.727640938941095   0.611685524252212   0.375000000000000   1.0000000
N2   N   0.556023885881304   0.117086193349852   0.375000000000000   1.0000000
N2   N   0.388900391705006   0.611120879056937   0.875000000000000   1.0000000
N2   N   0.885935363855001   0.109634348594167   0.375000000000000   1.0000000
N2   N   0.222232663012488   0.777782998172912   0.875000000000000   1.0000000
N2   N   0.055564402566283   0.277783381034699   0.875000000000000   1.0000000
N2   N   0.388896748736588   0.277777973968467   0.875000000000000   1.0000000
N2   N   0.555563816232881   0.777779921325955   0.875000000000000   1.0000000
N2   N   0.888897522118814   0.777781905810239   0.875000000000000   1.0000000
N2   N   0.722230271441205   0.277784028166146   0.875000000000000   1.0000000
N2   N   0.059469049472511   0.780100250100549   0.375000000000000   1.0000000
N2   N   0.391122406465732   0.776984822371741   0.375000000000000   1.0000000
N2   N   0.215464529345732   0.274398931339534   0.375000000000000   1.0000000
N2   N   0.721505476864815   0.774109555841168   0.375000000000000   1.0000000
N2   N   0.556940418865427   0.293084580490605   0.375000000000000   1.0000000
N2   N   0.886898645067363   0.277867180385640   0.375000000000000   1.0000000
N2   N   0.055561288355558   0.444450006966475   0.875000000000000   1.0000000
N2   N   0.222230832388835   0.944447004111853   0.875000000000000   1.0000000
N2   N   0.555565477247026   0.944449405290150   0.875000000000000   1.0000000
N2   N   0.388896748736588   0.444452108101447   0.875000000000000   1.0000000
N2   N   0.888900107480364   0.944446903056969   0.875000000000000   1.0000000
N2   N   0.055695160504150   0.944439556761889   0.375000000000000   1.0000000
N2   N   0.722228810693251   0.444448407270764   0.875000000000000   1.0000000
N2   N   0.391122406465730   0.947470917427346   0.375000000000000   1.0000000
N2   N   0.220141523875426   0.442738307967921   0.375000000000000   1.0000000
N2   N   0.224787070698636   0.610967649887294   0.375000000000000   1.0000000
N2   N   0.720612542898303   0.942350744655515   0.375000000000000   1.0000000
N2   N   0.891102159553748   0.446152047312553   0.375000000000000   1.0000000
N2   N   0.055562733317210   0.611112557788021   0.875000000000000   1.0000000
N2   N   0.222231506632900   0.111115437934252   0.875000000000000   1.0000000
N2   N   0.722228810693251   0.611113736755812   0.875000000000000   1.0000000
N2   N   0.555563816232881   0.111117228240270   0.875000000000000   1.0000000
N2   N   0.888895516807633   0.111114425070490   0.875000000000000   1.0000000
B2   B   0.109122323991463   0.054807774593585   0.375000000000000   1.0000000
B2   B   0.618336633305031   0.540944424182446   0.375000000000000   1.0000000
B2   B   0.445292467849548   0.060094203144132   0.375000000000000   1.0000000
B2   B   0.948776387580653   0.557304477326908   0.375000000000000   1.0000000
B2   B   0.775027156231757   0.054180244782546   0.375000000000000   1.0000000
B2   B   0.111302715650248   0.722318024491793   0.875000000000000   1.0000000
B2   B   0.444363303265842   0.722044687965455   0.875000000000000   1.0000000
B2   B   0.277699088576894   0.222322039870974   0.875000000000000   1.0000000
B2   B   0.777690512446488   0.722310212354163   0.875000000000000   1.0000000
B2   B   0.611300080632711   0.222321510412857   0.875000000000000   1.0000000
B2   B   0.944358198060039   0.222043703958150   0.875000000000000   1.0000000
B2   B   0.280233289374300   0.722476437998138   0.375000000000000   1.0000000
B2   B   0.105423402421621   0.219378367877471   0.375000000000000   1.0000000
B2   B   0.445284876938130   0.230799577343044   0.375000000000000   1.0000000
B2   B   0.610340132757715   0.712772704366610   0.375000000000000   1.0000000
B2   B   0.948776387580653   0.724805243587072   0.375000000000000   1.0000000
B2   B   0.775654648746189   0.223094285192821   0.375000000000000   1.0000000
B2   B   0.111026659478756   0.888981304017130   0.875000000000000   1.0000000
B2   B   0.444638972447606   0.888986152890473   0.875000000000000   1.0000000
B2   B   0.277699088576895   0.388710382039249   0.875000000000000   1.0000000
B2   B   0.611023560867426   0.388988208203785   0.875000000000000   1.0000000
B2   B   0.777690344883781   0.888705041250340   0.875000000000000   1.0000000
B2   B   0.944633117453401   0.388987997125019   0.875000000000000   1.0000000
B2   B   0.109122323991463   0.387647882731210   0.375000000000000   1.0000000
B2   B   0.280233289374300   0.891090184709487   0.375000000000000   1.0000000
B2   B   0.609868208564824   0.885588575370701   0.375000000000000   1.0000000
B2   B   0.944637583788246   0.888723935005079   0.375000000000000   1.0000000
B2   B   0.779985843439312   0.391485188565351   0.375000000000000   1.0000000
B2   B   0.277975548304924   0.555660067093576   0.875000000000000   1.0000000
B2   B   0.111026144400461   0.055373149859052   0.875000000000000   1.0000000
B2   B   0.611023560867426   0.555368685996948   0.875000000000000   1.0000000
B2   B   0.444363303265842   0.055651948633722   0.875000000000000   1.0000000
B2   B   0.944356584810066   0.555649305872383   0.875000000000000   1.0000000
B2   B   0.113590379025860   0.555936864550204   0.375000000000000   1.0000000
B2   B   0.777965306876883   0.055649320105108   0.875000000000000   1.0000000
B2   B   0.279078570109126   0.058591051355089   0.375000000000000   1.0000000
B2   B   0.445284876938130   0.547818632928410   0.375000000000000   1.0000000
B2   B   0.785817451223052   0.559575392278187   0.375000000000000   1.0000000
B2   B   0.609868208564824   0.057612966527442   0.375000000000000   1.0000000
B2   B   0.444367692175015   0.555656390852983   0.875000000000000   1.0000000
B2   B   0.941025356878371   0.053368243456908   0.375000000000000   1.0000000
B2   B   0.277699124740583   0.722321868528592   0.875000000000000   1.0000000
B2   B   0.111306607834369   0.222319970583850   0.875000000000000   1.0000000
B2   B   0.444367692175015   0.222044634655365   0.875000000000000   1.0000000
B2   B   0.611300080632711   0.722311903553180   0.875000000000000   1.0000000
B2   B   0.944356584810067   0.722040612271026   0.875000000000000   1.0000000
B2   B   0.777690344883781   0.222318636966772   0.875000000000000   1.0000000
B2   B   0.114695570437565   0.724014451885428   0.375000000000000   1.0000000
B2   B   0.445292467849548   0.718531598038751   0.375000000000000   1.0000000
B2   B   0.271397421527065   0.220594306086357   0.375000000000000   1.0000000
B2   B   0.779985843439312   0.721833988207283   0.375000000000000   1.0000000
B2   B   0.610340132757715   0.230900761724438   0.375000000000000   1.0000000
B2   B   0.941025356878371   0.220990446754812   0.375000000000000   1.0000000
B2   B   0.111026144400462   0.388986327874740   0.875000000000000   1.0000000
B2   B   0.277699124740583   0.888710589545303   0.875000000000000   1.0000000
B2   B   0.611028384368931   0.888982777570886   0.875000000000000   1.0000000
B2   B   0.444649309645384   0.388991321489363   0.875000000000000   1.0000000
B2   B   0.944633117453408   0.888978453661705   0.875000000000000   1.0000000
B2   B   0.113590379025860   0.890986847808978   0.375000000000000   1.0000000
B2   B   0.777690512446488   0.388713633425664   0.875000000000000   1.0000000
B2   B   0.445334602470515   0.889333967901935   0.375000000000000   1.0000000
B2   B   0.271397421527065   0.384136448774032   0.375000000000000   1.0000000
B2   B   0.279078570109128   0.553820852087370   0.375000000000000   1.0000000
B2   B   0.618336633305031   0.410725542455924   0.375000000000000   1.0000000
B2   B   0.775654648746189   0.885893696886691   0.375000000000000   1.0000000
B2   B   0.944637583788246   0.389246982116497   0.375000000000000   1.0000000
B2   B   0.111026659478757   0.555378688794962   0.875000000000000   1.0000000
B2   B   0.277975548304924   0.055648814544691   0.875000000000000   1.0000000
B2   B   0.777960585471875   0.555646959402605   0.875000000000000   1.0000000
B2   B   0.611028384368931   0.055378940131374   0.875000000000000   1.0000000
B2   B   0.944358198060041   0.055647827435222   0.875000000000000   1.0000000
B2   B   0.055414886503286   0.111041224574278   0.124797604542950   1.0000000
B2   B   0.555498541463107   0.610993165281019   0.124963125218257   1.0000000
B2   B   0.388831553151106   0.111139851994493   0.124947150312007   1.0000000
B2   B   0.888822997647991   0.611078165490673   0.124821313135976   1.0000000
B2   B   0.722085866105576   0.111059936340625   0.124960347984481   1.0000000
B2   B   0.055488405023922   0.777749860044123   0.625141721298795   1.0000000
B2   B   0.388810303005449   0.777717897701219   0.625044532713466   1.0000000
B2   B   0.222105645761638   0.277719489547483   0.625254389295758   1.0000000
B2   B   0.722115472006710   0.777680930584649   0.625092570142028   1.0000000
B2   B   0.555498541463107   0.277838709515443   0.625036874781752   1.0000000
B2   B   0.888761287195506   0.277725120145765   0.625129779488408   1.0000000
B2   B   0.222154692697633   0.777744013015490   0.124810090959355   1.0000000
B2   B   0.055414886503286   0.277706995262344   0.124797604542950   1.0000000
B2   B   0.388866228510356   0.277845159054617   0.124731551194814   1.0000000
B2   B   0.555462468584559   0.777681279351247   0.125041916486994   1.0000000
B2   B   0.888795661005383   0.777724597189406   0.124883109661941   1.0000000
B2   B   0.722115472006710   0.277767874755411   0.124907429857968   1.0000000
B2   B   0.055456419783415   0.944400949552634   0.625193325123604   1.0000000
B2   B   0.388810303005449   0.944425738637572   0.625044532713466   1.0000000
B2   B   0.222132312446583   0.444375323354724   0.625097309010887   1.0000000
B2   B   0.555435176192541   0.444384254762935   0.625304664626585   1.0000000
B2   B   0.722085866105576   0.944359263098287   0.625039652015528   1.0000000
B2   B   0.888795661005383   0.444404397149316   0.625116890338058   1.0000000
B2   B   0.055456419783415   0.444388803564101   0.124806674876401   1.0000000
B2   B   0.222150785771376   0.944429475248982   0.124896514412647   1.0000000
B2   B   0.555443812043660   0.944388572688500   0.124953862709639   1.0000000
B2   B   0.388866228510356   0.444354402789070   0.124731551194814   1.0000000
B2   B   0.888761287195506   0.944369500383063   0.124870220511588   1.0000000
B2   B   0.722131992299781   0.444425188962287   0.124848505520729   1.0000000
B2   B   0.222150785771376   0.611054643855742   0.625103485587333   1.0000000
B2   B   0.055414886503286   0.111041224574278   0.625202395457046   1.0000000
B2   B   0.555498541463107   0.610993165281019   0.625036874781752   1.0000000
B2   B   0.388831553151106   0.111139851994493   0.625052849688000   1.0000000
B2   B   0.888822997647991   0.611078165490673   0.625178686864037   1.0000000
B2   B   0.055488405023922   0.611071878313134   0.124858278701205   1.0000000
B2   B   0.722085866105576   0.111059936340625   0.625039652015528   1.0000000
B2   B   0.222132312446583   0.111090322425188   0.124902690989111   1.0000000
B2   B   0.388831553151106   0.611025034489969   0.124947150312007   1.0000000
B2   B   0.722131992299781   0.611040136670821   0.124848505520729   1.0000000
B2   B   0.555462468584559   0.111114522566662   0.125041916486994   1.0000000
B2   B   0.388831553151106   0.611025034489969   0.625052849688000   1.0000000
B2   B   0.888739716718508   0.111036525025926   0.124786072520195   1.0000000
B2   B   0.222154692697633   0.777744013015490   0.625189909040640   1.0000000
B2   B   0.055414886503286   0.277706995262344   0.625202395457046   1.0000000
B2   B   0.388866228510356   0.277845159054617   0.625268448805180   1.0000000
B2   B   0.555462468584559   0.777681279351247   0.624958083512991   1.0000000
B2   B   0.888795661005382   0.777724597189406   0.625116890338058   1.0000000
B2   B   0.722115472006710   0.277767874755411   0.625092570142028   1.0000000
B2   B   0.055488405023922   0.777749860044123   0.124858278701205   1.0000000
B2   B   0.388810303005449   0.777717897701219   0.124955467286533   1.0000000
B2   B   0.222105645761638   0.277719489547483   0.124745610704233   1.0000000
B2   B   0.722115472006710   0.777680930584649   0.124907429857968   1.0000000
B2   B   0.555498541463107   0.277838709515443   0.124963125218257   1.0000000
B2   B   0.888761287195506   0.277725120145765   0.124870220511588   1.0000000
B2   B   0.055456419783415   0.444388803564101   0.625193325123604   1.0000000
B2   B   0.222150785771376   0.944429475248982   0.625103485587333   1.0000000
B2   B   0.555443812043660   0.944388572688500   0.625046137290369   1.0000000
B2   B   0.388866228510356   0.444354402789070   0.625268448805181   1.0000000
B2   B   0.888761287195506   0.944369500383063   0.625129779488408   1.0000000
B2   B   0.055456419783415   0.944400949552634   0.124806674876401   1.0000000
B2   B   0.722131992299781   0.444425188962287   0.625151494479261   1.0000000
B2   B   0.388810303005449   0.944425738637572   0.124955467286533   1.0000000
B2   B   0.222132312446583   0.444375323354724   0.124902690989111   1.0000000
B2   B   0.222150785771376   0.611054643855742   0.124896514412647   1.0000000
B2   B   0.555435176192541   0.444384254762935   0.124695335373409   1.0000000
B2   B   0.722085866105576   0.944359263098287   0.124960347984481   1.0000000
B2   B   0.888795661005383   0.444404397149316   0.124883109661941   1.0000000
B2   B   0.055488405023922   0.611071878313134   0.625141721298795   1.0000000
B2   B   0.222132312446583   0.111090322425188   0.625097309010887   1.0000000
B2   B   0.722131992299781   0.611040136670821   0.625151494479261   1.0000000
B2   B   0.555462468584559   0.111114522566662   0.624958083512991   1.0000000
B2   B   0.888739716718508   0.111036525025926   0.625213927479796   1.0000000


