data_1
_audit_creation_method   'vasp2cif'
_cell_length_a    17.52789999999977
_cell_length_b    17.52789999999977
_cell_length_c    15.0
_cell_angle_alpha    90.0
_cell_angle_beta    90.0
_cell_angle_gamma    119.99999999999916

_symmetry_space_group_name_H-M    'P 1'
loop_
_atom_site_label
_atom_site_type_symbol
_atom_site_fract_x
_atom_site_fract_y
_atom_site_fract_z
_atom_site_occupancy
B2   B   0.908139665490131   0.956893338678521   0.111080574983381   1.0000000
B2   B   0.906987550889487   0.098294602471086   0.111084814676962   1.0000000
B2   B   0.905869370274792   0.239569621248306   0.111086852207727   1.0000000
B2   B   0.903873475557967   0.380838279300522   0.111030060300478   1.0000000
B2   B   0.897999730382146   0.521778451738873   0.111050273054937   1.0000000
B2   B   0.899112688208853   0.664030521133689   0.111074838101211   1.0000000
B2   B   0.905915244917955   0.812315352333007   0.111072369529794   1.0000000
B2   B   0.048445644970554   0.953702779240446   0.111013587901919   1.0000000
B2   B   0.049600935019026   0.097050554863333   0.111021747410269   1.0000000
B2   B   0.049163932259183   0.239498273821734   0.111071622449439   1.0000000
B2   B   0.047435825439607   0.381555731786972   0.111056042253424   1.0000000
B2   B   0.043863354828219   0.523185234597025   0.111088435782519   1.0000000
B2   B   0.043053253263219   0.664780553736268   0.111080519707062   1.0000000
B2   B   0.044645473698312   0.807987012415542   0.111007642712847   1.0000000
B2   B   0.188124801101534   0.950271023187209   0.111026231684541   1.0000000
B2   B   0.191820051762674   0.095789753919775   0.110967675933704   1.0000000
B2   B   0.191206126511812   0.237361994702483   0.110943516299859   1.0000000
B2   B   0.190869217745468   0.381049294208676   0.110977004863551   1.0000000
B2   B   0.187986703857426   0.523780310350670   0.111105276830871   1.0000000
B2   B   0.187183475591347   0.665570027410619   0.111154151919418   1.0000000
B2   B   0.186899420051792   0.807441527429539   0.111036858382519   1.0000000
B2   B   0.330130108104113   0.949394497054088   0.111012394960691   1.0000000
B2   B   0.330772661304886   0.091121695491754   0.111060312324638   1.0000000
B2   B   0.337213451350029   0.238669302241285   0.111010239534549   1.0000000
B2   B   0.332460105934053   0.377955417062475   0.111059129655980   1.0000000
B2   B   0.330955357322379   0.523598856609366   0.111082565515266   1.0000000
B2   B   0.331167630684295   0.666822325576995   0.111157309297907   1.0000000
B2   B   0.330169835645668   0.808421925118233   0.111044737018701   1.0000000
B2   B   0.474041135117653   0.951371656961693   0.110982511741444   1.0000000
B2   B   0.473658242954749   0.089205521476176   0.111070556532838   1.0000000
B2   B   0.472965061904492   0.225652967151944   0.110729653847066   1.0000000
B2   B   0.489022610710971   0.372932460378430   0.111047170055770   1.0000000
B2   B   0.475864987503278   0.676188117125630   0.110970328607693   1.0000000
B2   B   0.474639699944042   0.813712151032432   0.111038382910632   1.0000000
B2   B   0.619037255705074   0.955675457697283   0.110983207533905   1.0000000
B2   B   0.618302835957525   0.093595188442404   0.111058805538680   1.0000000
B2   B   0.617788736306264   0.231376515940811   0.110973367311285   1.0000000
B2   B   0.616515559866646   0.366654685703504   0.110675911602348   1.0000000
B2   B   0.624656984453827   0.686024806610478   0.110558990078072   1.0000000
B2   B   0.620864045869979   0.818622644942448   0.111085793248414   1.0000000
B2   B   0.764445154764631   0.957803614125437   0.111069193496719   1.0000000
B2   B   0.763176275946086   0.097415220158023   0.111049863136834   1.0000000
B2   B   0.762132337355993   0.237545955190046   0.111056970512505   1.0000000
B2   B   0.760317059136732   0.378073223894526   0.111012795868294   1.0000000
B2   B   0.748397064543292   0.518492343941079   0.111180548467033   1.0000000
B2   B   0.763604137389540   0.671030548543510   0.110810568316199   1.0000000
B2   B   0.766789512550099   0.818601941486698   0.111065576063181   1.0000000
In2   In   0.499264594122719   0.519097084683110   0.111594174811488   1.0000000
N2   N   0.953425275510892   0.907047223575796   0.111058490787559   1.0000000
N2   N   0.954811237280667   0.050807062365147   0.111047451333247   1.0000000
N2   N   0.954112425788333   0.192643213683862   0.111082244025526   1.0000000
N2   N   0.952506544255420   0.334306926132785   0.111026691581763   1.0000000
N2   N   0.948103101963381   0.475827044377262   0.111009689786337   1.0000000
N2   N   0.946833631377402   0.617116265148271   0.111059645596756   1.0000000
N2   N   0.948570867161674   0.760334913775812   0.111029379486995   1.0000000
N2   N   0.092970902704078   0.903304645166966   0.110979656136167   1.0000000
N2   N   0.096537227181339   0.048848368951687   0.110965633890761   1.0000000
N2   N   0.096544748261960   0.191396577366560   0.111009675238388   1.0000000
N2   N   0.095830240810580   0.334309784796048   0.111024812787346   1.0000000
N2   N   0.092901423458268   0.476528927146025   0.111071157048513   1.0000000
N2   N   0.091571550895414   0.618136486381568   0.111107332845965   1.0000000
N2   N   0.091344939158996   0.759932065718677   0.111012978320847   1.0000000
N2   N   0.235013941861123   0.902272431706789   0.110991042316619   1.0000000
N2   N   0.236267037754039   0.045248506151062   0.111021402607473   1.0000000
N2   N   0.240953025632947   0.191561486321359   0.110927673997081   1.0000000
N2   N   0.237677663485840   0.331446753663573   0.110905028108148   1.0000000
N2   N   0.236104478792526   0.476654350091216   0.111009230972261   1.0000000
N2   N   0.235961902257491   0.619014868823725   0.111148321083724   1.0000000
N2   N   0.234980876498638   0.760494802134030   0.111084362998191   1.0000000
N2   N   0.378590268864611   0.902984393819556   0.110974542933895   1.0000000
N2   N   0.378416517686443   0.043734238688052   0.111047127936644   1.0000000
N2   N   0.379220073742546   0.185576922764572   0.110973598662901   1.0000000
N2   N   0.389445581140570   0.336443850004089   0.111131587557053   1.0000000
N2   N   0.370688793895268   0.470148192417057   0.111135046805802   1.0000000
N2   N   0.380740259413018   0.620856740005319   0.111137387151468   1.0000000
N2   N   0.379261970449174   0.762359013573788   0.111058170722661   1.0000000
N2   N   0.523477616528276   0.907091426509345   0.110940465836097   1.0000000
N2   N   0.522866394986678   0.044843402647262   0.111035567740485   1.0000000
N2   N   0.522599512939937   0.182226013800912   0.111004334011612   1.0000000
N2   N   0.523339708404515   0.316955238835434   0.110248590782743   1.0000000
N2   N   0.569087824070552   0.460990503204053   0.111949679860802   1.0000000
N2   N   0.533925839277995   0.643459585473111   0.110420545767915   1.0000000
N2   N   0.524689155922694   0.770183674600943   0.111094698742581   1.0000000
N2   N   0.668952332020319   0.911394147808949   0.111019132014176   1.0000000
N2   N   0.667687664369029   0.049087704815277   0.110994253019122   1.0000000
N2   N   0.666988677275976   0.187415172557593   0.111063546934171   1.0000000
N2   N   0.666789866271106   0.325427243540235   0.110823713697914   1.0000000
N2   N   0.650246843686445   0.459552358574287   0.111204616905842   1.0000000
N2   N   0.671935961567860   0.639765927673623   0.110242869682883   1.0000000
N2   N   0.673572872543112   0.777247018314486   0.111065854893602   1.0000000
N2   N   0.813563671412981   0.911605585910912   0.111079803621960   1.0000000
N2   N   0.811895157046942   0.051439331943962   0.111047135695380   1.0000000
N2   N   0.810786194310779   0.191681784297328   0.111054959670888   1.0000000
N2   N   0.809260816662370   0.332533658489504   0.111024164182948   1.0000000
N2   N   0.800977462192213   0.473635893286835   0.111043730684232   1.0000000
N2   N   0.801848823544198   0.615957764641224   0.111080653152146   1.0000000
N2   N   0.810607979959207   0.766643202587972   0.110997011729841   1.0000000


