data_1
_audit_creation_method   'vasp2cif'
_cell_length_a    14.93631414619966
_cell_length_b    14.936314146199727
_cell_length_c    13.341276283792837
_cell_angle_alpha    90.0
_cell_angle_beta    90.0
_cell_angle_gamma    119.99999999999984

_symmetry_space_group_name_H-M    'P 1'
loop_
_atom_site_label
_atom_site_type_symbol
_atom_site_fract_x
_atom_site_fract_y
_atom_site_fract_z
_atom_site_occupancy
P2   P   0.431131486360849   0.382232409847093   0.375000000000000   1.0000000
P2   P   0.573400732200629   0.453367032766983   0.375000000000000   1.0000000
N2   N   0.111130268510598   0.055548700027538   0.125260525247225   1.0000000
N2   N   0.611224465777284   0.555604612739838   0.122691450857100   1.0000000
N2   N   0.444470371357991   0.055572249240609   0.125266084275893   1.0000000
N2   N   0.944477634019054   0.555572819049698   0.125273927191442   1.0000000
N2   N   0.777822828271177   0.055578080802260   0.124997783349198   1.0000000
N2   N   0.111130573303851   0.722231953318597   0.624807351333720   1.0000000
N2   N   0.444470371357991   0.722231455450716   0.624733915724106   1.0000000
N2   N   0.277790668833088   0.222219707839679   0.624548509355303   1.0000000
N2   N   0.777842978723422   0.722284141213536   0.625324658108440   1.0000000
N2   N   0.611158005147598   0.222264277810905   0.625079992338074   1.0000000
N2   N   0.944492578915407   0.222244869362306   0.624982923679236   1.0000000
N2   N   0.277798411908012   0.722236419167103   0.125187201001295   1.0000000
N2   N   0.111136689876720   0.222235011605024   0.125190180689201   1.0000000
N2   N   0.444482614644229   0.222258091196522   0.124922104544708   1.0000000
N2   N   0.611158005147598   0.722227060670022   0.124920007661926   1.0000000
N2   N   0.944477634019054   0.722238148302692   0.125273927191442   1.0000000
N2   N   0.777829193053995   0.222233131253446   0.124985037338598   1.0000000
N2   N   0.111134214576363   0.888890704570090   0.624774982102062   1.0000000
N2   N   0.444466131396431   0.888899732364884   0.624801578216522   1.0000000
N2   N   0.277790668833088   0.388904294326738   0.624548509355303   1.0000000
N2   N   0.611224465777284   0.388953186370780   0.627308549142900   1.0000000
N2   N   0.777829193053995   0.888929395133871   0.625014962661402   1.0000000
N2   N   0.944487323601604   0.388906950529793   0.624861811448530   1.0000000
N2   N   0.111130268510598   0.388914901816388   0.125260525247225   1.0000000
N2   N   0.277798411908012   0.888895326074238   0.125187201001295   1.0000000
N2   N   0.611140864046796   0.888897976943338   0.125147391088421   1.0000000
N2   N   0.444397286458431   0.388865309895880   0.125038518258805   1.0000000
N2   N   0.944487323601604   0.888913706405139   0.125138188551469   1.0000000
N2   N   0.777842978723422   0.388892170843208   0.124675341891561   1.0000000
N2   N   0.277803119927304   0.555573975349573   0.624614269366992   1.0000000
N2   N   0.111130268510598   0.055548700027538   0.624739474752775   1.0000000
N2   N   0.611224465777284   0.555604612739838   0.627308549142900   1.0000000
N2   N   0.444470371357991   0.055572249240609   0.624733915724106   1.0000000
N2   N   0.944477634019054   0.555572819049698   0.624726072808558   1.0000000
N2   N   0.111134214576363   0.555576843339601   0.125225017897945   1.0000000
N2   N   0.777822828271177   0.055578080802260   0.625002216650802   1.0000000
N2   N   0.277803119927304   0.055562477911068   0.125385730633008   1.0000000
N2   N   0.444482614644229   0.555557856781044   0.124922104544708   1.0000000
N2   N   0.777827731989400   0.555580532661367   0.124660910756050   1.0000000
N2   N   0.611140864046796   0.055576220436786   0.125147391088421   1.0000000
N2   N   0.444482614644229   0.555557856781044   0.625077895455292   1.0000000
N2   N   0.944492578915407   0.055581042886437   0.125017076320758   1.0000000
N2   N   0.277798411908012   0.722236419167103   0.624812798998705   1.0000000
N2   N   0.111136689876720   0.222235011605024   0.624809819310800   1.0000000
N2   N   0.444482614644229   0.222258091196522   0.625077895455292   1.0000000
N2   N   0.611158005147598   0.722227060670022   0.625079992338074   1.0000000
N2   N   0.944477634019054   0.722238148302692   0.624726072808558   1.0000000
N2   N   0.777829193053995   0.222233131253446   0.625014962661402   1.0000000
N2   N   0.111130573303851   0.722231953318597   0.125192648666279   1.0000000
N2   N   0.444470371357991   0.722231455450716   0.125266084275893   1.0000000
N2   N   0.277790668833088   0.222219707839679   0.125451490644696   1.0000000
N2   N   0.777842978723422   0.722284141213536   0.124675341891561   1.0000000
N2   N   0.611158005147598   0.222264277810905   0.124920007661926   1.0000000
N2   N   0.944492578915407   0.222244869362306   0.125017076320758   1.0000000
N2   N   0.111130268510598   0.388914901816388   0.624739474752775   1.0000000
N2   N   0.277798411908012   0.888895326074238   0.624812798998705   1.0000000
N2   N   0.611140864046796   0.888897976943338   0.624852608911579   1.0000000
N2   N   0.444397286458431   0.388865309895880   0.624961481741195   1.0000000
N2   N   0.944487323601604   0.888913706405139   0.624861811448530   1.0000000
N2   N   0.111134214576363   0.888890704570090   0.125225017897945   1.0000000
N2   N   0.777842978723422   0.388892170843208   0.625324658108440   1.0000000
N2   N   0.444466131396431   0.888899732364884   0.125198421783478   1.0000000
N2   N   0.277790668833088   0.388904294326738   0.125451490644696   1.0000000
N2   N   0.277803119927304   0.555573975349573   0.125385730633008   1.0000000
N2   N   0.611224465777284   0.388953186370780   0.122691450857100   1.0000000
N2   N   0.777829193053995   0.888929395133871   0.124985037338598   1.0000000
N2   N   0.944487323601604   0.388906950529793   0.125138188551469   1.0000000
N2   N   0.111134214576363   0.555576843339601   0.624774982102062   1.0000000
N2   N   0.277803119927304   0.055562477911068   0.624614269366992   1.0000000
N2   N   0.777827731989400   0.555580532661367   0.625339089243949   1.0000000
N2   N   0.611140864046796   0.055576220436786   0.624852608911579   1.0000000
N2   N   0.944492578915407   0.055581042886437   0.624982923679236   1.0000000
N2   N   0.054366062597138   0.110383794277924   0.375000000000000   1.0000000
N2   N   0.554099491736663   0.620928900101274   0.375000000000000   1.0000000
N2   N   0.386418707452530   0.105439153015558   0.375000000000000   1.0000000
N2   N   0.891428691302355   0.612381012317845   0.375000000000000   1.0000000
N2   N   0.722403299859375   0.110237663049990   0.375000000000000   1.0000000
N2   N   0.055558025664349   0.777782983747065   0.875000000000000   1.0000000
N2   N   0.388895382530176   0.777781400957451   0.875000000000000   1.0000000
N2   N   0.222225052128720   0.277779192731028   0.875000000000000   1.0000000
N2   N   0.722218543022803   0.777780482627790   0.875000000000000   1.0000000
N2   N   0.555548966645924   0.277768666317595   0.875000000000000   1.0000000
N2   N   0.888889396121866   0.277776441950298   0.875000000000000   1.0000000
N2   N   0.221370013019037   0.777351673176182   0.375000000000000   1.0000000
N2   N   0.054366062597138   0.277315601652543   0.375000000000000   1.0000000
N2   N   0.378594898485219   0.263043177846143   0.375000000000000   1.0000000
N2   N   0.554704687452311   0.781809258491035   0.375000000000000   1.0000000
N2   N   0.892780333065641   0.781515377892271   0.375000000000000   1.0000000
N2   N   0.723513352215690   0.275768355855396   0.375000000000000   1.0000000
N2   N   0.055556501170386   0.944449857181618   0.875000000000000   1.0000000
N2   N   0.388895382530176   0.944447314906068   0.875000000000000   1.0000000
N2   N   0.222225549192024   0.444441871604640   0.875000000000000   1.0000000
N2   N   0.555546064001950   0.444439698667643   0.875000000000000   1.0000000
N2   N   0.722218112420828   0.944443993574909   0.875000000000000   1.0000000
N2   N   0.888891314383622   0.444442655724797   0.875000000000000   1.0000000
N2   N   0.055215785331601   0.444630281288430   0.375000000000000   1.0000000
N2   N   0.220939477621724   0.942446003555416   0.375000000000000   1.0000000
N2   N   0.554880923885382   0.944107128609359   0.375000000000000   1.0000000
N2   N   0.378594898485219   0.448885053972411   0.375000000000000   1.0000000
N2   N   0.889299197839706   0.945476084411772   0.375000000000000   1.0000000
N2   N   0.732014738409528   0.444565920523024   0.375000000000000   1.0000000
N2   N   0.222227383159890   0.611108990866225   0.875000000000000   1.0000000
N2   N   0.055555247863727   0.111112286428174   0.875000000000000   1.0000000
N2   N   0.555548966645924   0.611113633661663   0.875000000000000   1.0000000
N2   N   0.388893220850565   0.111112730809184   0.875000000000000   1.0000000
N2   N   0.888890104453803   0.611111718893577   0.875000000000000   1.0000000
N2   N   0.055978892351135   0.611465739722281   0.375000000000000   1.0000000
N2   N   0.722218112420828   0.111107452179254   0.875000000000000   1.0000000
N2   N   0.217856207888121   0.106092856832488   0.375000000000000   1.0000000
N2   N   0.386418707452530   0.614312887770315   0.375000000000000   1.0000000
N2   N   0.732014738409528   0.620782151219841   0.375000000000000   1.0000000
N2   N   0.554704687452311   0.106228762294611   0.375000000000000   1.0000000
N2   N   0.388893220850565   0.611113823374723   0.875000000000000   1.0000000
N2   N   0.888715521110366   0.111024427221855   0.375000000000000   1.0000000
N2   N   0.222227894771118   0.777780614052226   0.875000000000000   1.0000000
N2   N   0.055555247863727   0.277776294768896   0.875000000000000   1.0000000
N2   N   0.388891203060958   0.277780775564836   0.875000000000000   1.0000000
N2   N   0.555554866922958   0.777781074458240   0.875000000000000   1.0000000
N2   N   0.888891314383622   0.777781991992155   0.875000000000000   1.0000000
N2   N   0.722218543022803   0.277771393728350   0.875000000000000   1.0000000
N2   N   0.055978892351135   0.777846485962191   0.375000000000000   1.0000000
N2   N   0.387481181831050   0.778537915691987   0.375000000000000   1.0000000
N2   N   0.219319487729515   0.276326410531421   0.375000000000000   1.0000000
N2   N   0.723513352215690   0.781078329693623   0.375000000000000   1.0000000
N2   N   0.554099491736663   0.266503924968725   0.375000000000000   1.0000000
N2   N   0.889299197839706   0.277156446761269   0.375000000000000   1.0000000
N2   N   0.055556501170386   0.444439977322096   0.875000000000000   1.0000000
N2   N   0.222227383159890   0.944451725626993   0.875000000000000   1.0000000
N2   N   0.555555046099696   0.944444189716512   0.875000000000000   1.0000000
N2   N   0.388891203060958   0.444443760829466   0.875000000000000   1.0000000
N2   N   0.888889396121866   0.944446287504910   0.875000000000000   1.0000000
N2   N   0.055215785331601   0.943918837376507   0.375000000000000   1.0000000
N2   N   0.722224830043058   0.444443003122873   0.875000000000000   1.0000000
N2   N   0.387481181831050   0.942276599472398   0.375000000000000   1.0000000
N2   N   0.217856207888121   0.445096684388968   0.375000000000000   1.0000000
N2   N   0.220939477621724   0.611826807399643   0.375000000000000   1.0000000
N2   N   0.722403299859375   0.945498970142721   0.375000000000000   1.0000000
N2   N   0.892780333065641   0.444598288506706   0.375000000000000   1.0000000
N2   N   0.055558025664349   0.611108375250618   0.875000000000000   1.0000000
N2   N   0.222225549192024   0.111117010920720   0.875000000000000   1.0000000
N2   N   0.722224830043058   0.611115160253513   0.875000000000000   1.0000000
N2   N   0.555554866922958   0.111107125798053   0.875000000000000   1.0000000
N2   N   0.888887185312267   0.111110259322805   0.875000000000000   1.0000000
B2   B   0.107697527121378   0.052903681876279   0.375000000000000   1.0000000
B2   B   0.623265645693724   0.582661663017352   0.375000000000000   1.0000000
B2   B   0.443732944338752   0.051595443178374   0.375000000000000   1.0000000
B2   B   0.945930151481214   0.555669277034528   0.375000000000000   1.0000000
B2   B   0.778060824294847   0.055697078814095   0.375000000000000   1.0000000
B2   B   0.111107169412862   0.722220251373096   0.875000000000000   1.0000000
B2   B   0.444468305556271   0.722269369643404   0.875000000000000   1.0000000
B2   B   0.277748267835969   0.222188278670616   0.875000000000000   1.0000000
B2   B   0.777792482701408   0.722244715890541   0.875000000000000   1.0000000
B2   B   0.611140862237044   0.222201607205486   0.875000000000000   1.0000000
B2   B   0.944402584765699   0.222201083190276   0.875000000000000   1.0000000
B2   B   0.276780942509512   0.722644315613930   0.375000000000000   1.0000000
B2   B   0.107641623910005   0.220487478621667   0.375000000000000   1.0000000
B2   B   0.444539000660605   0.213396801210941   0.375000000000000   1.0000000
B2   B   0.612103638035766   0.730374662176867   0.375000000000000   1.0000000
B2   B   0.945930151481214   0.723594207780015   0.375000000000000   1.0000000
B2   B   0.778627011937937   0.220791502863166   0.375000000000000   1.0000000
B2   B   0.111096644378038   0.888873259004577   0.875000000000000   1.0000000
B2   B   0.444464045559648   0.888898689446488   0.875000000000000   1.0000000
B2   B   0.277748267835969   0.388893322498681   0.875000000000000   1.0000000
B2   B   0.611156200421492   0.388890983287772   0.875000000000000   1.0000000
B2   B   0.777775240402829   0.888900895665424   0.875000000000000   1.0000000
B2   B   0.944424993926848   0.388877488807248   0.875000000000000   1.0000000
B2   B   0.107697527121378   0.388127178578427   0.375000000000000   1.0000000
B2   B   0.276780942509512   0.887469960228917   0.375000000000000   1.0000000
B2   B   0.611564802242230   0.891358602946178   0.375000000000000   1.0000000
B2   B   0.945477824985560   0.890753841443465   0.375000000000000   1.0000000
B2   B   0.783864928602295   0.387739783862818   0.375000000000000   1.0000000
B2   B   0.277773475257426   0.555586044206596   0.875000000000000   1.0000000
B2   B   0.111067039372981   0.055521117003796   0.875000000000000   1.0000000
B2   B   0.611156200421492   0.555598550467048   0.875000000000000   1.0000000
B2   B   0.444468305556271   0.055532269246203   0.875000000000000   1.0000000
B2   B   0.944443650808626   0.555552184739563   0.875000000000000   1.0000000
B2   B   0.110370653218828   0.555643297070628   0.375000000000000   1.0000000
B2   B   0.777764433699132   0.055548883516230   0.875000000000000   1.0000000
B2   B   0.275439428821782   0.051734788562552   0.375000000000000   1.0000000
B2   B   0.444539000660605   0.564475532783000   0.375000000000000   1.0000000
B2   B   0.782086405584235   0.557709869458782   0.375000000000000   1.0000000
B2   B   0.611564802242230   0.053539532629382   0.375000000000000   1.0000000
B2   B   0.444478391026995   0.555620401546553   0.875000000000000   1.0000000
B2   B   0.943577036776798   0.055521228083385   0.375000000000000   1.0000000
B2   B   0.277785338516253   0.722239549791092   0.875000000000000   1.0000000
B2   B   0.111047035713318   0.222190184523320   0.875000000000000   1.0000000
B2   B   0.444478391026995   0.222191322813777   0.875000000000000   1.0000000
B2   B   0.611140862237044   0.722272588364894   0.875000000000000   1.0000000
B2   B   0.944443650808626   0.722224799402399   0.875000000000000   1.0000000
B2   B   0.777775240402829   0.222207678070733   0.875000000000000   1.0000000
B2   B   0.110959935783307   0.722146634558317   0.375000000000000   1.0000000
B2   B   0.443732944338752   0.725470834493714   0.375000000000000   1.0000000
B2   B   0.267228357832445   0.213329684332575   0.375000000000000   1.0000000
B2   B   0.783864928602295   0.729458478072805   0.375000000000000   1.0000000
B2   B   0.612103638035766   0.215062309192220   0.375000000000000   1.0000000
B2   B   0.943577036776798   0.221389142026742   0.375000000000000   1.0000000
B2   B   0.111067039372981   0.388879255702514   0.875000000000000   1.0000000
B2   B   0.277785338516253   0.888879122058482   0.875000000000000   1.0000000
B2   B   0.611126951437373   0.888913301812499   0.875000000000000   1.0000000
B2   B   0.444483906236464   0.388908619784896   0.875000000000000   1.0000000
B2   B   0.944424993926848   0.888880838452922   0.875000000000000   1.0000000
B2   B   0.110370653218828   0.888060689481528   0.375000000000000   1.0000000
B2   B   0.777792482701408   0.388881100144195   0.875000000000000   1.0000000
B2   B   0.443968675859212   0.888651004596267   0.375000000000000   1.0000000
B2   B   0.267228357832445   0.387232006833198   0.375000000000000   1.0000000
B2   B   0.275439428821782   0.557037973592565   0.375000000000000   1.0000000
B2   B   0.623265645693724   0.373937316009700   0.375000000000000   1.0000000
B2   B   0.778627011937937   0.891168842408099   0.375000000000000   1.0000000
B2   B   0.945477824985560   0.388057316875424   0.375000000000000   1.0000000
B2   B   0.111096644378038   0.555556718706790   0.875000000000000   1.0000000
B2   B   0.277773475257426   0.055520764384158   0.875000000000000   1.0000000
B2   B   0.777799430794044   0.555566382063689   0.875000000000000   1.0000000
B2   B   0.611126951437373   0.055546982958203   0.875000000000000   1.0000000
B2   B   0.944402584765699   0.055534834908758   0.875000000000000   1.0000000
B2   B   0.055457615883515   0.111013832948462   0.124847351311717   1.0000000
B2   B   0.555784620343496   0.611265402311471   0.123864301194105   1.0000000
B2   B   0.388907434383794   0.110972562484862   0.124836515592320   1.0000000
B2   B   0.888981183742194   0.611157258537768   0.124949335391293   1.0000000
B2   B   0.722284086255618   0.111130344229546   0.124871232805328   1.0000000
B2   B   0.055557075389666   0.777747766528183   0.624986298596478   1.0000000
B2   B   0.388896553589587   0.777830725987163   0.625012154450037   1.0000000
B2   B   0.222044454252071   0.277688893792700   0.625362312714945   1.0000000
B2   B   0.722353440000476   0.777871007984161   0.625366009705194   1.0000000
B2   B   0.555784620343496   0.277852551365362   0.626135698805896   1.0000000
B2   B   0.888903094553239   0.277795416516534   0.625147808828546   1.0000000
B2   B   0.222204366710195   0.777768850021765   0.124963737152606   1.0000000
B2   B   0.055457615883515   0.277777116268389   0.124847351311717   1.0000000
B2   B   0.388883024290067   0.277578510252041   0.123900698452655   1.0000000
B2   B   0.555636303692778   0.777861024015747   0.124917921124293   1.0000000
B2   B   0.888950453973760   0.777808987254604   0.124886481706603   1.0000000
B2   B   0.722353440000476   0.277815765349651   0.124633990294805   1.0000000
B2   B   0.055506073085989   0.944339889154869   0.625030615486165   1.0000000
B2   B   0.388896553589587   0.944399160935759   0.625012154450037   1.0000000
B2   B   0.222092427003910   0.444550404537740   0.625118471212910   1.0000000
B2   B   0.555953839093042   0.444643586213186   0.627104228986546   1.0000000
B2   B   0.722284086255618   0.944487075359408   0.625128767194672   1.0000000
B2   B   0.888950453973760   0.444474800052492   0.625113518293398   1.0000000
B2   B   0.055506073085989   0.444499517264449   0.124969384513835   1.0000000
B2   B   0.222179180701581   0.944316345017636   0.124998672973699   1.0000000
B2   B   0.555601902077080   0.944467617705200   0.124975046217205   1.0000000
B2   B   0.388883024290067   0.444637847371363   0.123900698452655   1.0000000
B2   B   0.888903094553239   0.944441011370048   0.124852191171453   1.0000000
B2   B   0.722433767799295   0.444515966053927   0.123682783767942   1.0000000
B2   B   0.222179180701581   0.611196169017281   0.625001327026301   1.0000000
B2   B   0.055457615883515   0.111013832948462   0.625152648688284   1.0000000
B2   B   0.555784620343496   0.611265402311471   0.626135698805896   1.0000000
B2   B   0.388907434383794   0.110972562484862   0.625163484407680   1.0000000
B2   B   0.888981183742194   0.611157258537768   0.625050664608714   1.0000000
B2   B   0.055557075389666   0.611142642194818   0.125013701403522   1.0000000
B2   B   0.722284086255618   0.111130344229546   0.625128767194672   1.0000000
B2   B   0.222092427003910   0.110875355799506   0.124881528787090   1.0000000
B2   B   0.388907434383794   0.611268205232268   0.124836515592320   1.0000000
B2   B   0.722433767799295   0.611251135078705   0.123682783767942   1.0000000
B2   B   0.555636303692778   0.111108613010367   0.124917921124293   1.0000000
B2   B   0.388907434383794   0.611268205232268   0.625163484407680   1.0000000
B2   B   0.888881260144411   0.111107296738876   0.124810843496835   1.0000000
B2   B   0.222204366710195   0.777768850021765   0.625036262847395   1.0000000
B2   B   0.055457615883515   0.277777116268389   0.625152648688284   1.0000000
B2   B   0.388883024290067   0.277578510252041   0.626099301547338   1.0000000
B2   B   0.555636303692778   0.777861024015747   0.625082078875700   1.0000000
B2   B   0.888950453973760   0.777808987254604   0.625113518293398   1.0000000
B2   B   0.722353440000476   0.277815765349651   0.625366009705194   1.0000000
B2   B   0.055557075389666   0.777747766528183   0.125013701403522   1.0000000
B2   B   0.388896553589587   0.777830725987163   0.124987845549963   1.0000000
B2   B   0.222044454252071   0.277688893792700   0.124637687285061   1.0000000
B2   B   0.722353440000476   0.777871007984161   0.124633990294805   1.0000000
B2   B   0.555784620343496   0.277852551365362   0.123864301194105   1.0000000
B2   B   0.888903094553239   0.277795416516534   0.124852191171453   1.0000000
B2   B   0.055506073085989   0.444499517264449   0.625030615486165   1.0000000
B2   B   0.222179180701581   0.944316345017636   0.625001327026301   1.0000000
B2   B   0.555601902077080   0.944467617705200   0.625024953782795   1.0000000
B2   B   0.388883024290067   0.444637847371363   0.626099301547338   1.0000000
B2   B   0.888903094553239   0.944441011370048   0.625147808828546   1.0000000
B2   B   0.055506073085989   0.944339889154869   0.124969384513835   1.0000000
B2   B   0.722433767799295   0.444515966053927   0.626317216232058   1.0000000
B2   B   0.388896553589587   0.944399160935759   0.124987845549963   1.0000000
B2   B   0.222092427003910   0.444550404537740   0.124881528787090   1.0000000
B2   B   0.222179180701581   0.611196169017281   0.124998672973699   1.0000000
B2   B   0.555953839093042   0.444643586213186   0.122895771013454   1.0000000
B2   B   0.722284086255618   0.944487075359408   0.124871232805328   1.0000000
B2   B   0.888950453973760   0.444474800052492   0.124886481706603   1.0000000
B2   B   0.055557075389666   0.611142642194818   0.624986298596478   1.0000000
B2   B   0.222092427003910   0.110875355799506   0.625118471212910   1.0000000
B2   B   0.722433767799295   0.611251135078705   0.626317216232058   1.0000000
B2   B   0.555636303692778   0.111108613010367   0.625082078875700   1.0000000
B2   B   0.888881260144411   0.111107296738876   0.625189156503164   1.0000000


