data_1
_audit_creation_method   'vasp2cif'
_cell_length_a    14.93631414619966
_cell_length_b    14.936314146199727
_cell_length_c    13.341276283792837
_cell_angle_alpha    90.0
_cell_angle_beta    90.0
_cell_angle_gamma    119.99999999999984

_symmetry_space_group_name_H-M    'P 1'
loop_
_atom_site_label
_atom_site_type_symbol
_atom_site_fract_x
_atom_site_fract_y
_atom_site_fract_z
_atom_site_occupancy
P2   P   0.502894015158566   0.418113674245947   0.375000000000000   1.0000000
N2   N   0.111078793844269   0.055539170980027   0.124949782113228   1.0000000
N2   N   0.611126233719936   0.555617447091822   0.123928088371581   1.0000000
N2   N   0.444462554510384   0.055563647502483   0.124928268196983   1.0000000
N2   N   0.944411058854942   0.555536890539523   0.124915162933832   1.0000000
N2   N   0.777791176851409   0.055562255092372   0.124870148446271   1.0000000
N2   N   0.111095806513420   0.722214569923374   0.625110839948500   1.0000000
N2   N   0.444462554510384   0.722232240341237   0.625071731803016   1.0000000
N2   N   0.277704362124317   0.222185991704687   0.625295272306800   1.0000000
N2   N   0.777754591760142   0.722226317813303   0.625165578262319   1.0000000
N2   N   0.611119622520774   0.222203602136995   0.625223004220454   1.0000000
N2   N   0.944428770920035   0.222212401960675   0.625102269220765   1.0000000
N2   N   0.277786121827381   0.722223088793951   0.124902308551493   1.0000000
N2   N   0.111058521520769   0.222195927427049   0.124917173848826   1.0000000
N2   N   0.444444703187248   0.222217180193100   0.124654491024741   1.0000000
N2   N   0.611119622520774   0.722249353717108   0.124776995779545   1.0000000
N2   N   0.944411058854942   0.722207501648755   0.124915162933832   1.0000000
N2   N   0.777783626803068   0.222209302142313   0.124890127981737   1.0000000
N2   N   0.111095230457200   0.888884292891963   0.625110842483412   1.0000000
N2   N   0.444468158328287   0.888900745830808   0.625102219819200   1.0000000
N2   N   0.277704362124317   0.388851703752958   0.625295272306800   1.0000000
N2   N   0.611126233719936   0.388842119961441   0.626071911628419   1.0000000
N2   N   0.777783626803068   0.888907657994084   0.625109872018264   1.0000000
N2   N   0.944424035004542   0.388876139196201   0.625075278174496   1.0000000
N2   N   0.111078793844269   0.388872956197571   0.124949782113228   1.0000000
N2   N   0.277786121827381   0.888896366366758   0.124902308551493   1.0000000
N2   N   0.611134296954108   0.888909765163009   0.124888357130329   1.0000000
N2   N   0.444240980997530   0.388787157165429   0.123132668788197   1.0000000
N2   N   0.944424035004542   0.888881229141670   0.124924721825504   1.0000000
N2   N   0.777754591760142   0.388861607280167   0.124834421737681   1.0000000
N2   N   0.277773738277331   0.555546604061917   0.625081687982761   1.0000000
N2   N   0.111078793844269   0.055539170980027   0.625050217886772   1.0000000
N2   N   0.611126233719936   0.555617447091822   0.626071911628419   1.0000000
N2   N   0.444462554510384   0.055563647502483   0.625071731803016   1.0000000
N2   N   0.944411058854942   0.555536890539523   0.625084837066167   1.0000000
N2   N   0.111095230457200   0.555544270898564   0.124889157516588   1.0000000
N2   N   0.777791176851409   0.055562255092372   0.625129851553728   1.0000000
N2   N   0.277773738277331   0.055560467548750   0.124918312017238   1.0000000
N2   N   0.444444703187248   0.555560856327483   0.124654491024741   1.0000000
N2   N   0.777737915211779   0.555535624272557   0.124814162054694   1.0000000
N2   N   0.611134296954108   0.055557865124427   0.124888357130329   1.0000000
N2   N   0.444444703187248   0.555560856327483   0.625345508975260   1.0000000
N2   N   0.944428770920035   0.055549702292696   0.124897730779234   1.0000000
N2   N   0.277786121827381   0.722223088793951   0.625097691448507   1.0000000
N2   N   0.111058521520769   0.222195927427049   0.625082826151174   1.0000000
N2   N   0.444444703187248   0.222217180193100   0.625345508975260   1.0000000
N2   N   0.611119622520774   0.722249353717108   0.625223004220454   1.0000000
N2   N   0.944411058854942   0.722207501648755   0.625084837066167   1.0000000
N2   N   0.777783626803068   0.222209302142313   0.625109872018264   1.0000000
N2   N   0.111095806513420   0.722214569923374   0.124889160051500   1.0000000
N2   N   0.444462554510384   0.722232240341237   0.124928268196983   1.0000000
N2   N   0.277704362124317   0.222185991704687   0.124704727693200   1.0000000
N2   N   0.777754591760142   0.722226317813303   0.124834421737681   1.0000000
N2   N   0.611119622520774   0.222203602136995   0.124776995779545   1.0000000
N2   N   0.944428770920035   0.222212401960675   0.124897730779234   1.0000000
N2   N   0.111078793844269   0.388872956197571   0.625050217886772   1.0000000
N2   N   0.277786121827381   0.888896366366758   0.625097691448507   1.0000000
N2   N   0.611134296954108   0.888909765163009   0.625111642869671   1.0000000
N2   N   0.444240980997530   0.388787157165429   0.626867331211803   1.0000000
N2   N   0.944424035004542   0.888881229141670   0.625075278174496   1.0000000
N2   N   0.111095230457200   0.888884292891963   0.124889157516588   1.0000000
N2   N   0.777754591760142   0.388861607280167   0.625165578262319   1.0000000
N2   N   0.444468158328287   0.888900745830808   0.124897780180801   1.0000000
N2   N   0.277704362124317   0.388851703752958   0.124704727693200   1.0000000
N2   N   0.277773738277331   0.555546604061917   0.124918312017238   1.0000000
N2   N   0.611126233719936   0.388842119961441   0.123928088371581   1.0000000
N2   N   0.777783626803068   0.888907657994084   0.124890127981737   1.0000000
N2   N   0.944424035004542   0.388876139196201   0.124924721825504   1.0000000
N2   N   0.111095230457200   0.555544270898564   0.625110842483412   1.0000000
N2   N   0.277773738277331   0.055560467548750   0.625081687982761   1.0000000
N2   N   0.777737915211779   0.555535624272557   0.625185837945306   1.0000000
N2   N   0.611134296954108   0.055557865124427   0.625111642869671   1.0000000
N2   N   0.944428770920035   0.055549702292696   0.625102269220765   1.0000000
N2   N   0.058271811010581   0.112801286865501   0.375000000000000   1.0000000
N2   N   0.554173618818534   0.619523685218057   0.375000000000000   1.0000000
N2   N   0.386992369591419   0.106389021873365   0.375000000000000   1.0000000
N2   N   0.882889698746421   0.608111516039882   0.375000000000000   1.0000000
N2   N   0.722922159369798   0.110634547952632   0.375000000000000   1.0000000
N2   N   0.055567357407382   0.777782282566012   0.875000000000000   1.0000000
N2   N   0.388891522720571   0.777782928508412   0.875000000000000   1.0000000
N2   N   0.222230863914410   0.277782098623873   0.875000000000000   1.0000000
N2   N   0.722227975023508   0.777776774280640   0.875000000000000   1.0000000
N2   N   0.555556874145675   0.277776874092695   0.875000000000000   1.0000000
N2   N   0.888897655120243   0.277786355710264   0.875000000000000   1.0000000
N2   N   0.218944718531709   0.776139025932522   0.375000000000000   1.0000000
N2   N   0.058271811010581   0.278803857478416   0.375000000000000   1.0000000
N2   N   0.396368564756667   0.278869615683938   0.375000000000000   1.0000000
N2   N   0.554578380014208   0.781171131391769   0.375000000000000   1.0000000
N2   N   0.885846160986430   0.776443943766505   0.375000000000000   1.0000000
N2   N   0.721978831035613   0.275542794902059   0.375000000000000   1.0000000
N2   N   0.055563361757223   0.944443684494292   0.875000000000000   1.0000000
N2   N   0.388891522720571   0.944441927545495   0.875000000000000   1.0000000
N2   N   0.222226700839252   0.444453230298873   0.875000000000000   1.0000000
N2   N   0.555563464495372   0.444448398914350   0.875000000000000   1.0000000
N2   N   0.722224593739502   0.944444271597827   0.875000000000000   1.0000000
N2   N   0.888902665702183   0.444454200416050   0.875000000000000   1.0000000
N2   N   0.055176050765043   0.444045404423587   0.375000000000000   1.0000000
N2   N   0.219711274907419   0.942283003031202   0.375000000000000   1.0000000
N2   N   0.554664918739992   0.943999126036660   0.375000000000000   1.0000000
N2   N   0.396368564756667   0.450832282406065   0.375000000000000   1.0000000
N2   N   0.889898944661683   0.945635803467591   0.375000000000000   1.0000000
N2   N   0.714934984434918   0.439995161032335   0.375000000000000   1.0000000
N2   N   0.222225390514388   0.611118902108970   0.875000000000000   1.0000000
N2   N   0.055562558461596   0.111111660127974   0.875000000000000   1.0000000
N2   N   0.555556874145675   0.611113333386318   0.875000000000000   1.0000000
N2   N   0.388889512986009   0.111102719422175   0.875000000000000   1.0000000
N2   N   0.888909642199093   0.611121487766217   0.875000000000000   1.0000000
N2   N   0.051757253938824   0.609434611738760   0.375000000000000   1.0000000
N2   N   0.722224593739502   0.111113655475010   0.875000000000000   1.0000000
N2   N   0.224812784942958   0.112556270006306   0.375000000000000   1.0000000
N2   N   0.386992369591419   0.613936681051397   0.375000000000000   1.0000000
N2   N   0.714934984434918   0.608273156735917   0.375000000000000   1.0000000
N2   N   0.554578380014208   0.106740581955775   0.375000000000000   1.0000000
N2   N   0.388889512986009   0.611120126897176   0.875000000000000   1.0000000
N2   N   0.890799823941046   0.112066578637195   0.375000000000000   1.0000000
N2   N   0.222228109725659   0.777780721529497   0.875000000000000   1.0000000
N2   N   0.055562558461596   0.277784231666958   0.875000000000000   1.0000000
N2   N   0.388893539809965   0.277770809672484   0.875000000000000   1.0000000
N2   N   0.555555960044188   0.777779549849189   0.875000000000000   1.0000000
N2   N   0.888902665702183   0.777781798619471   0.875000000000000   1.0000000
N2   N   0.722227975023508   0.277784534076204   0.875000000000000   1.0000000
N2   N   0.051757253938824   0.775655975533400   0.375000000000000   1.0000000
N2   N   0.386573102313543   0.777899070044450   0.375000000000000   1.0000000
N2   N   0.227433670828628   0.280383502080982   0.375000000000000   1.0000000
N2   N   0.721978831035613   0.779769369466889   0.375000000000000   1.0000000
N2   N   0.554173618818534   0.267983266933812   0.375000000000000   1.0000000
N2   N   0.889898944661683   0.277596474527428   0.375000000000000   1.0000000
N2   N   0.055563361757223   0.444453010596258   0.875000000000000   1.0000000
N2   N   0.222225390514388   0.944439821738753   0.875000000000000   1.0000000
N2   N   0.555555213733135   0.944444273533231   0.875000000000000   1.0000000
N2   N   0.388893539809965   0.444456063470816   0.875000000000000   1.0000000
N2   N   0.888897655120243   0.944444632743314   0.875000000000000   1.0000000
N2   N   0.055176050765043   0.944463979674785   0.375000000000000   1.0000000
N2   N   0.722237727308499   0.444455742881374   0.875000000000000   1.0000000
N2   N   0.386573102313543   0.942007365602429   0.375000000000000   1.0000000
N2   N   0.224812784942958   0.445589848269987   0.375000000000000   1.0000000
N2   N   0.219711274907419   0.610761605209552   0.375000000000000   1.0000000
N2   N   0.722922159369798   0.945620944750501   0.375000000000000   1.0000000
N2   N   0.885846160986430   0.442735550553262   0.375000000000000   1.0000000
N2   N   0.055567357407382   0.611118408174706   0.875000000000000   1.0000000
N2   N   0.222226700839252   0.111106803873714   0.875000000000000   1.0000000
N2   N   0.722237727308499   0.611115317760460   0.875000000000000   1.0000000
N2   N   0.555555960044188   0.111109743528334   0.875000000000000   1.0000000
N2   N   0.888895486018509   0.111114409675926   0.875000000000000   1.0000000
B2   B   0.113421109748964   0.056813450777790   0.375000000000000   1.0000000
B2   B   0.601043000765485   0.557522723678428   0.375000000000000   1.0000000
B2   B   0.443195422686735   0.052507051622863   0.375000000000000   1.0000000
B2   B   0.939941905882511   0.553721874397960   0.375000000000000   1.0000000
B2   B   0.779354326958558   0.056343830145947   0.375000000000000   1.0000000
B2   B   0.111112130697733   0.722222732015532   0.875000000000000   1.0000000
B2   B   0.444444468991893   0.722188676029053   0.875000000000000   1.0000000
B2   B   0.277850095452569   0.222270796482696   0.875000000000000   1.0000000
B2   B   0.777745981561458   0.722163102527137   0.875000000000000   1.0000000
B2   B   0.611086293958125   0.222267418711970   0.875000000000000   1.0000000
B2   B   0.944468034953396   0.222243003679694   0.875000000000000   1.0000000
B2   B   0.275304746133467   0.721564492543546   0.375000000000000   1.0000000
B2   B   0.116011820939491   0.224672577136410   0.375000000000000   1.0000000
B2   B   0.443643905688999   0.217145252309710   0.375000000000000   1.0000000
B2   B   0.610920671706850   0.727431535758527   0.375000000000000   1.0000000
B2   B   0.939941905882511   0.719553364817888   0.375000000000000   1.0000000
B2   B   0.778640244512866   0.221706948180187   0.375000000000000   1.0000000
B2   B   0.111123134577063   0.888895600404609   0.875000000000000   1.0000000
B2   B   0.444440074473783   0.888886703903555   0.875000000000000   1.0000000
B2   B   0.277850095452569   0.388912632303201   0.875000000000000   1.0000000
B2   B   0.611075826344782   0.388918804436283   0.875000000000000   1.0000000
B2   B   0.777766057606283   0.888849555468607   0.875000000000000   1.0000000
B2   B   0.944449309734552   0.388910316552936   0.875000000000000   1.0000000
B2   B   0.113421109748964   0.389940992304503   0.375000000000000   1.0000000
B2   B   0.275304746133467   0.887073586923249   0.375000000000000   1.0000000
B2   B   0.611344492727177   0.890663879852850   0.375000000000000   1.0000000
B2   B   0.943577122385399   0.888329757867714   0.375000000000000   1.0000000
B2   B   0.773622660599748   0.386858475779772   0.375000000000000   1.0000000
B2   B   0.277807692573779   0.555548149755378   0.875000000000000   1.0000000
B2   B   0.111154106298671   0.055578906233636   0.875000000000000   1.0000000
B2   B   0.611075826344782   0.555490355241829   0.875000000000000   1.0000000
B2   B   0.444444468991893   0.055589126296176   0.875000000000000   1.0000000
B2   B   0.944430761387788   0.555558869389018   0.875000000000000   1.0000000
B2   B   0.108695550446903   0.554922438079720   0.375000000000000   1.0000000
B2   B   0.777775277362490   0.055554305347913   0.875000000000000   1.0000000
B2   B   0.276711559868524   0.053688456506947   0.375000000000000   1.0000000
B2   B   0.443643905688999   0.559831986712625   0.375000000000000   1.0000000
B2   B   0.769628596420996   0.551480964877167   0.375000000000000   1.0000000
B2   B   0.611344492727177   0.054013946207655   0.375000000000000   1.0000000
B2   B   0.444461018566715   0.555518866694779   0.875000000000000   1.0000000
B2   B   0.946899047490652   0.057010808076903   0.375000000000000   1.0000000
B2   B   0.277786233189007   0.722216395890402   0.875000000000000   1.0000000
B2   B   0.111174768686107   0.222254051009718   0.875000000000000   1.0000000
B2   B   0.444461018566715   0.222275485205272   0.875000000000000   1.0000000
B2   B   0.611086293958125   0.722152208579483   0.875000000000000   1.0000000
B2   B   0.944430761387788   0.722205225332107   0.875000000000000   1.0000000
B2   B   0.777766057606283   0.222249835471005   0.875000000000000   1.0000000
B2   B   0.107562071807531   0.720447702570431   0.375000000000000   1.0000000
B2   B   0.443195422686735   0.724021704397208   0.375000000000000   1.0000000
B2   B   0.285551173806709   0.226461565092997   0.375000000000000   1.0000000
B2   B   0.773622660599748   0.720097518153305   0.375000000000000   1.0000000
B2   B   0.610920671706850   0.216822469281651   0.375000000000000   1.0000000
B2   B   0.946899047490652   0.223221572747086   0.375000000000000   1.0000000
B2   B   0.111154106298671   0.388908533398364   0.875000000000000   1.0000000
B2   B   0.277786233189007   0.888903170631933   0.875000000000000   1.0000000
B2   B   0.611096864538511   0.888860129911212   0.875000000000000   1.0000000
B2   B   0.444491075143991   0.388912204238660   0.875000000000000   1.0000000
B2   B   0.944449309734552   0.888872326514945   0.875000000000000   1.0000000
B2   B   0.108695550446903   0.887106445700512   0.375000000000000   1.0000000
B2   B   0.777745981561458   0.388916212367650   0.875000000000000   1.0000000
B2   B   0.443103470186902   0.888218401760116   0.375000000000000   1.0000000
B2   B   0.285551173806709   0.392422942047040   0.375000000000000   1.0000000
B2   B   0.276711559868524   0.556356436694911   0.375000000000000   1.0000000
B2   B   0.601043000765485   0.376853610420385   0.375000000000000   1.0000000
B2   B   0.778640244512866   0.890266629666008   0.375000000000000   1.0000000
B2   B   0.943577122385399   0.388580697851013   0.375000000000000   1.0000000
B2   B   0.111123134577063   0.555560867505784   0.875000000000000   1.0000000
B2   B   0.277807692573779   0.055592876151737   0.875000000000000   1.0000000
B2   B   0.777739093134714   0.555536213234025   0.875000000000000   1.0000000
B2   B   0.611096864538511   0.055570067960629   0.875000000000000   1.0000000
B2   B   0.944468034953396   0.055558364607038   0.875000000000000   1.0000000
B2   B   0.055596054445228   0.111153365072812   0.125127612519632   1.0000000
B2   B   0.555549252865892   0.610926596906068   0.125018598105546   1.0000000
B2   B   0.388980367667275   0.111325009909700   0.125197370444223   1.0000000
B2   B   0.888672814317298   0.611003073825321   0.125155917793583   1.0000000
B2   B   0.722226222508593   0.111133868306921   0.125047084302683   1.0000000
B2   B   0.055484486951555   0.777758692267538   0.624936465682719   1.0000000
B2   B   0.388943062165491   0.777747613644025   0.624915862493166   1.0000000
B2   B   0.222323741167975   0.277828537250655   0.624826202170726   1.0000000
B2   B   0.722145602862301   0.777680331837922   0.624918081374684   1.0000000
B2   B   0.555549252865892   0.277955989293160   0.624981401894455   1.0000000
B2   B   0.888864573210886   0.277771940435936   0.624928135857294   1.0000000
B2   B   0.222233510439928   0.777783421886632   0.125044044860860   1.0000000
B2   B   0.055596054445228   0.277776022705752   0.125127612519632   1.0000000
B2   B   0.388978192789662   0.277982513223833   0.125010532579968   1.0000000
B2   B   0.555582231559264   0.777700100194721   0.125103018746360   1.0000000
B2   B   0.888758044795427   0.777699790208008   0.125114493760102   1.0000000
B2   B   0.722145602862301   0.277798604357715   0.125081918625316   1.0000000
B2   B   0.055547313957024   0.944476717462001   0.624892414176851   1.0000000
B2   B   0.388943062165491   0.944528781854801   0.624915862493166   1.0000000
B2   B   0.222303691314572   0.444380425288528   0.624789907880769   1.0000000
B2   B   0.555364175779403   0.444348754556366   0.623819393575236   1.0000000
B2   B   0.722226222508593   0.944425687535008   0.624952915697316   1.0000000
B2   B   0.888758044795427   0.444391587920754   0.624885506239898   1.0000000
B2   B   0.055547313957024   0.444403929828352   0.125107585823149   1.0000000
B2   B   0.222262848508958   0.944546759450400   0.125094225229326   1.0000000
B2   B   0.555592473269367   0.944462903301348   0.125055236383879   1.0000000
B2   B   0.388978192789662   0.444329012899165   0.125010532579968   1.0000000
B2   B   0.888864573210886   0.944425966108286   0.125071864142706   1.0000000
B2   B   0.721931722454149   0.444339154112695   0.125001779200535   1.0000000
B2   B   0.222262848508958   0.611049422391895   0.624905774770674   1.0000000
B2   B   0.055596054445228   0.111153365072812   0.624872387480369   1.0000000
B2   B   0.555549252865892   0.610926596906068   0.624981401894455   1.0000000
B2   B   0.388980367667275   0.111325009909700   0.624802629555778   1.0000000
B2   B   0.888672814317298   0.611003073825321   0.624844082206417   1.0000000
B2   B   0.055484486951555   0.611059128017350   0.125063534317281   1.0000000
B2   B   0.722226222508593   0.111133868306921   0.624952915697316   1.0000000
B2   B   0.222303691314572   0.111256599359380   0.125210092119232   1.0000000
B2   B   0.388980367667275   0.610988691090918   0.125197370444223   1.0000000
B2   B   0.721931722454149   0.610925901674790   0.125001779200535   1.0000000
B2   B   0.555582231559264   0.111215464697878   0.125103018746360   1.0000000
B2   B   0.388980367667275   0.610988691090918   0.624802629555778   1.0000000
B2   B   0.888900782945325   0.111117058139333   0.125039700151587   1.0000000
B2   B   0.222233510439928   0.777783421886632   0.624955955139141   1.0000000
B2   B   0.055596054445228   0.277776022705752   0.624872387480369   1.0000000
B2   B   0.388978192789662   0.277982513223833   0.624989467420032   1.0000000
B2   B   0.555582231559264   0.777700100194721   0.624896981253640   1.0000000
B2   B   0.888758044795427   0.777699790208008   0.624885506239898   1.0000000
B2   B   0.722145602862301   0.277798604357715   0.624918081374684   1.0000000
B2   B   0.055484486951555   0.777758692267538   0.125063534317281   1.0000000
B2   B   0.388943062165491   0.777747613644025   0.125084137506834   1.0000000
B2   B   0.222323741167975   0.277828537250655   0.125173797829274   1.0000000
B2   B   0.722145602862301   0.777680331837922   0.125081918625316   1.0000000
B2   B   0.555549252865892   0.277955989293160   0.125018598105546   1.0000000
B2   B   0.888864573210886   0.277771940435936   0.125071864142706   1.0000000
B2   B   0.055547313957024   0.444403929828352   0.624892414176851   1.0000000
B2   B   0.222262848508958   0.944546759450400   0.624905774770674   1.0000000
B2   B   0.555592473269367   0.944462903301348   0.624944763616121   1.0000000
B2   B   0.388978192789662   0.444329012899165   0.624989467420032   1.0000000
B2   B   0.888864573210886   0.944425966108286   0.624928135857294   1.0000000
B2   B   0.055547313957024   0.944476717462001   0.125107585823149   1.0000000
B2   B   0.721931722454149   0.444339154112695   0.624998220799464   1.0000000
B2   B   0.388943062165491   0.944528781854801   0.125084137506834   1.0000000
B2   B   0.222303691314572   0.444380425288528   0.125210092119232   1.0000000
B2   B   0.222262848508958   0.611049422391895   0.125094225229326   1.0000000
B2   B   0.555364175779403   0.444348754556366   0.126180606424764   1.0000000
B2   B   0.722226222508593   0.944425687535008   0.125047084302683   1.0000000
B2   B   0.888758044795427   0.444391587920754   0.125114493760102   1.0000000
B2   B   0.055484486951555   0.611059128017350   0.624936465682719   1.0000000
B2   B   0.222303691314572   0.111256599359380   0.624789907880769   1.0000000
B2   B   0.721931722454149   0.610925901674790   0.624998220799464   1.0000000
B2   B   0.555582231559264   0.111215464697878   0.624896981253640   1.0000000
B2   B   0.888900782945325   0.111117058139333   0.624960299848412   1.0000000


