data_1
_audit_creation_method   'vasp2cif'
_cell_length_a    14.93631414619966
_cell_length_b    14.936314146199727
_cell_length_c    13.341276283792837
_cell_angle_alpha    90.0
_cell_angle_beta    90.0
_cell_angle_gamma    119.99999999999984

_symmetry_space_group_name_H-M    'P 1'
loop_
_atom_site_label
_atom_site_type_symbol
_atom_site_fract_x
_atom_site_fract_y
_atom_site_fract_z
_atom_site_occupancy
Ga2   Ga   0.555555555555557   0.444444444444443   0.375000000000000   1.0000000
N2   N   0.111126443539023   0.055536688044748   0.124397861139202   1.0000000
N2   N   0.611111669711057   0.555556672755618   0.125773873793284   1.0000000
N2   N   0.444418296764381   0.055537019170920   0.124374161505852   1.0000000
N2   N   0.944462980829026   0.555581703235440   0.124374161505852   1.0000000
N2   N   0.777759108794526   0.055546221063910   0.124592286434186   1.0000000
N2   N   0.111124421843508   0.722228877588320   0.624801319550248   1.0000000
N2   N   0.444418296764381   0.722214610926951   0.625625838494221   1.0000000
N2   N   0.277792596765229   0.222214747262468   0.625799679310625   1.0000000
N2   N   0.777785252737542   0.722207403234674   0.625799679310625   1.0000000
N2   N   0.611088817163889   0.222214747262468   0.625799679310625   1.0000000
N2   N   0.944453778936143   0.222240891205549   0.625407713565797   1.0000000
N2   N   0.277771122411551   0.722228877588320   0.125198680449813   1.0000000
N2   N   0.111135837928248   0.222234585630758   0.124320724016569   1.0000000
N2   N   0.444447818780392   0.222228970894190   0.124404914433135   1.0000000
N2   N   0.611088817163889   0.722207403234674   0.124200320689405   1.0000000
N2   N   0.944462980829026   0.722214610926951   0.124374161505852   1.0000000
N2   N   0.777765414369070   0.222234585630758   0.124320724016569   1.0000000
N2   N   0.111126696473945   0.888873303526152   0.625160827518810   1.0000000
N2   N   0.444413273718860   0.888873303526152   0.625160827518810   1.0000000
N2   N   0.277792596765229   0.388911182836187   0.625799679310626   1.0000000
N2   N   0.611111669711057   0.388888330288855   0.624226126206760   1.0000000
N2   N   0.777765414369070   0.888864162071997   0.625679275983426   1.0000000
N2   N   0.944463311955215   0.388923088827611   0.625602138860757   1.0000000
N2   N   0.111126443539023   0.388923088827612   0.124397861139202   1.0000000
N2   N   0.277771122411551   0.888875578156431   0.125198680449821   1.0000000
N2   N   0.611076911172476   0.888873556460957   0.124397861139202   1.0000000
N2   N   0.444443327244369   0.388888330288855   0.125773873793275   1.0000000
N2   N   0.944463311955215   0.888873556460957   0.124397861139202   1.0000000
N2   N   0.777785252737542   0.388911182836187   0.124200320689405   1.0000000
N2   N   0.277785389073188   0.555581703235440   0.625625838494221   1.0000000
N2   N   0.111126443539023   0.055536688044748   0.625602138860757   1.0000000
N2   N   0.611111669711057   0.555556672755618   0.624226126206759   1.0000000
N2   N   0.444418296764381   0.055537019170921   0.625625838494221   1.0000000
N2   N   0.944462980829026   0.555581703235440   0.625625838494221   1.0000000
N2   N   0.111126696473945   0.555586726281230   0.124839172481204   1.0000000
N2   N   0.777759108794526   0.055546221063910   0.625407713565797   1.0000000
N2   N   0.277785389073188   0.055537019170922   0.124374161505852   1.0000000
N2   N   0.444447818780392   0.555552181219788   0.124404914433135   1.0000000
N2   N   0.777771029105880   0.555552181219788   0.124404914433138   1.0000000
N2   N   0.611076911172476   0.055536688044748   0.124397861139202   1.0000000
N2   N   0.444447818780392   0.555552181219788   0.625595085567045   1.0000000
N2   N   0.944453778936143   0.055546221063910   0.124592286434186   1.0000000
N2   N   0.277771122411551   0.722228877588320   0.624801319550248   1.0000000
N2   N   0.111135837928248   0.222234585630758   0.625679275983426   1.0000000
N2   N   0.444447818780392   0.222228970894190   0.625595085567044   1.0000000
N2   N   0.611088817163889   0.722207403234674   0.625799679310625   1.0000000
N2   N   0.944462980829026   0.722214610926951   0.625625838494221   1.0000000
N2   N   0.777765414369070   0.222234585630758   0.625679275983426   1.0000000
N2   N   0.111124421843508   0.722228877588320   0.125198680449821   1.0000000
N2   N   0.444418296764381   0.722214610926951   0.124374161505852   1.0000000
N2   N   0.277792596765229   0.222214747262467   0.124200320689405   1.0000000
N2   N   0.777785252737542   0.722207403234674   0.124200320689405   1.0000000
N2   N   0.611088817163889   0.222214747262467   0.124200320689405   1.0000000
N2   N   0.944453778936143   0.222240891205549   0.124592286434186   1.0000000
N2   N   0.111126443539023   0.388923088827612   0.625602138860757   1.0000000
N2   N   0.277771122411551   0.888875578156431   0.624801319550248   1.0000000
N2   N   0.611076911172476   0.888873556460957   0.625602138860757   1.0000000
N2   N   0.444443327244369   0.388888330288855   0.624226126206759   1.0000000
N2   N   0.944463311955215   0.888873556460957   0.625602138860757   1.0000000
N2   N   0.111126696473945   0.888873303526152   0.124839172481204   1.0000000
N2   N   0.777785252737542   0.388911182836187   0.625799679310672   1.0000000
N2   N   0.444413273718860   0.888873303526152   0.124839172481204   1.0000000
N2   N   0.277792596765229   0.388911182836187   0.124200320689405   1.0000000
N2   N   0.277785389073187   0.555581703235440   0.124374161505852   1.0000000
N2   N   0.611111669711057   0.388888330288855   0.125773873793271   1.0000000
N2   N   0.777765414369070   0.888864162071956   0.124320724016569   1.0000000
N2   N   0.944463311955215   0.388923088827611   0.124397861139202   1.0000000
N2   N   0.111126696473945   0.555586726281230   0.625160827518810   1.0000000
N2   N   0.277785389073188   0.055537019170921   0.625625838494221   1.0000000
N2   N   0.777771029105880   0.555552181219788   0.625595085567045   1.0000000
N2   N   0.611076911172476   0.055536688044748   0.625602138860757   1.0000000
N2   N   0.944453778936143   0.055546221063910   0.625407713565797   1.0000000
N2   N   0.054496303072932   0.110441350614287   0.375000000000000   1.0000000
N2   N   0.555107490558305   0.619425721627395   0.375000000000000   1.0000000
N2   N   0.387703727638277   0.108740788609937   0.375000000000000   1.0000000
N2   N   0.891259211390133   0.612296272361626   0.375000000000000   1.0000000
N2   N   0.722611714208077   0.110441350614287   0.375000000000000   1.0000000
N2   N   0.055542865987860   0.777775475196648   0.875000000000000   1.0000000
N2   N   0.388899275875340   0.777775475196648   0.875000000000000   1.0000000
N2   N   0.222236046525619   0.277784689929500   0.875000000000000   1.0000000
N2   N   0.722215310070476   0.777763953474335   0.875000000000000   1.0000000
N2   N   0.555561026695389   0.277798176413304   0.875000000000000   1.0000000
N2   N   0.888886585537627   0.277780639779979   0.875000000000000   1.0000000
N2   N   0.222222222222221   0.777777777777779   0.375000000000000   1.0000000
N2   N   0.054496303072932   0.277388285791923   0.375000000000000   1.0000000
N2   N   0.380574278372615   0.269015102264305   0.375000000000000   1.0000000
N2   N   0.555158856321787   0.781284587091717   0.375000000000000   1.0000000
N2   N   0.892792397436458   0.781284587091718   0.375000000000000   1.0000000
N2   N   0.723876906512265   0.276123093487619   0.375000000000000   1.0000000
N2   N   0.055553961547679   0.944446038452359   0.875000000000000   1.0000000
N2   N   0.388899275875340   0.944457134012198   0.875000000000000   1.0000000
N2   N   0.222233502365891   0.444440121155319   0.875000000000000   1.0000000
N2   N   0.555555555555557   0.444444444444443   0.875000000000000   1.0000000
N2   N   0.722219360220138   0.944439279091198   0.875000000000000   1.0000000
N2   N   0.888873285456010   0.444440121155319   0.875000000000000   1.0000000
N2   N   0.055715006423402   0.444763346180204   0.375000000000000   1.0000000
N2   N   0.221850806322144   0.943515617687862   0.375000000000000   1.0000000
N2   N   0.555236653819951   0.944284993576611   0.375000000000000   1.0000000
N2   N   0.380574278372615   0.444892509441736   0.375000000000000   1.0000000
N2   N   0.889558649385749   0.945503696927000   0.375000000000000   1.0000000
N2   N   0.730984897735662   0.444892509441736   0.375000000000000   1.0000000
N2   N   0.222224524803350   0.611100724124555   0.875000000000000   1.0000000
N2   N   0.055560720908977   0.111113414462349   0.875000000000000   1.0000000
N2   N   0.555561026695391   0.611096183615100   0.875000000000000   1.0000000
N2   N   0.388903663503245   0.111140660339875   0.875000000000000   1.0000000
N2   N   0.888859339660168   0.611096336496796   0.875000000000000   1.0000000
N2   N   0.056484382312158   0.611668521967612   0.375000000000000   1.0000000
N2   N   0.722219360220138   0.111113414462349   0.875000000000000   1.0000000
N2   N   0.218715412908336   0.107207602563550   0.375000000000000   1.0000000
N2   N   0.387703727638262   0.612296272361626   0.375000000000000   1.0000000
N2   N   0.730984897735667   0.619425721627396   0.375000000000000   1.0000000
N2   N   0.555158856321787   0.107207602563551   0.375000000000000   1.0000000
N2   N   0.388903663503245   0.611096336496796   0.875000000000000   1.0000000
N2   N   0.888888888888886   0.111111111111114   0.375000000000000   1.0000000
N2   N   0.222222222222221   0.777777777777779   0.875000000000000   1.0000000
N2   N   0.055560720908977   0.277780639779979   0.875000000000000   1.0000000
N2   N   0.388903816384702   0.277798176413304   0.875000000000000   1.0000000
N2   N   0.555559878844573   0.777766497634156   0.875000000000000   1.0000000
N2   N   0.888873285456010   0.777766497634156   0.875000000000000   1.0000000
N2   N   0.722215310070476   0.277784689929500   0.875000000000000   1.0000000
N2   N   0.056484382312158   0.778149193677897   0.375000000000000   1.0000000
N2   N   0.388331478032383   0.778149193677897   0.375000000000000   1.0000000
N2   N   0.218912853642011   0.276123093487619   0.375000000000000   1.0000000
N2   N   0.723876906512265   0.781087146358098   0.375000000000000   1.0000000
N2   N   0.555107490558305   0.269015102264305   0.375000000000000   1.0000000
N2   N   0.889558649385749   0.277388285791923   0.375000000000000   1.0000000
N2   N   0.055553961547679   0.444441256428580   0.875000000000000   1.0000000
N2   N   0.222224524803350   0.944457134012198   0.875000000000000   1.0000000
N2   N   0.555558743571426   0.944446038452359   0.875000000000000   1.0000000
N2   N   0.388903816384702   0.444438973304812   0.875000000000000   1.0000000
N2   N   0.888886585537627   0.944439279091198   0.875000000000000   1.0000000
N2   N   0.055715006423402   0.944284993576611   0.375000000000000   1.0000000
N2   N   0.722201823586516   0.444438973304812   0.875000000000000   1.0000000
N2   N   0.388331478032402   0.943515617687863   0.375000000000000   1.0000000
N2   N   0.218715412908336   0.444841143678059   0.375000000000000   1.0000000
N2   N   0.221850806322144   0.611668521967612   0.375000000000000   1.0000000
N2   N   0.722611714208077   0.945503696927000   0.375000000000000   1.0000000
N2   N   0.892792397436456   0.444841143678059   0.375000000000000   1.0000000
N2   N   0.055542865987859   0.611100724124555   0.875000000000000   1.0000000
N2   N   0.222233502365891   0.111126714543934   0.875000000000000   1.0000000
N2   N   0.722201823586516   0.611096183615100   0.875000000000000   1.0000000
N2   N   0.555559878844573   0.111126714543934   0.875000000000000   1.0000000
N2   N   0.888888888888886   0.111111111111114   0.875000000000000   1.0000000
B2   B   0.108546312059434   0.053777798308465   0.375000000000000   1.0000000
B2   B   0.628062407220020   0.589458147773095   0.375000000000000   1.0000000
B2   B   0.443960929887559   0.053181746777897   0.375000000000000   1.0000000
B2   B   0.946818253222056   0.556039070112542   0.375000000000000   1.0000000
B2   B   0.778460221539943   0.055896777436708   0.375000000000000   1.0000000
B2   B   0.111119612429284   0.722226472881326   0.875000000000000   1.0000000
B2   B   0.444448669872881   0.722256305385406   0.875000000000000   1.0000000
B2   B   0.277699063357432   0.222172902439682   0.875000000000000   1.0000000
B2   B   0.777827097560207   0.722300936642595   0.875000000000000   1.0000000
B2   B   0.611140505748850   0.222172902439682   0.875000000000000   1.0000000
B2   B   0.944434991201282   0.222203315736017   0.875000000000000   1.0000000
B2   B   0.277444329137198   0.722555670862798   0.375000000000000   1.0000000
B2   B   0.107988232961710   0.220660783147574   0.375000000000000   1.0000000
B2   B   0.441871194751276   0.217075722835869   0.375000000000000   1.0000000
B2   B   0.612996560225614   0.731111293245553   0.375000000000000   1.0000000
B2   B   0.946818253222056   0.724112516443010   0.375000000000000   1.0000000
B2   B   0.779339216852467   0.220660783147574   0.375000000000000   1.0000000
B2   B   0.111106120195799   0.888893879804298   0.875000000000000   1.0000000
B2   B   0.444454426275017   0.888893879804298   0.875000000000000   1.0000000
B2   B   0.277699063357432   0.388859494251057   0.875000000000000   1.0000000
B2   B   0.611146168284058   0.388853831716022   0.875000000000000   1.0000000
B2   B   0.777807815924988   0.888948965182887   0.875000000000000   1.0000000
B2   B   0.944461782405903   0.388865778099956   0.875000000000000   1.0000000
B2   B   0.108546312059434   0.388101847084298   0.375000000000000   1.0000000
B2   B   0.277444329137198   0.888221991607724   0.375000000000000   1.0000000
B2   B   0.611898152915772   0.891453687940557   0.375000000000000   1.0000000
B2   B   0.410541852226772   0.371937592780117   0.375000000000000   1.0000000
B2   B   0.946222201691723   0.891453687940557   0.375000000000000   1.0000000
B2   B   0.784781399686564   0.387003439774417   0.375000000000000   1.0000000
B2   B   0.277743694614628   0.555551330127077   0.875000000000000   1.0000000
B2   B   0.111070662360782   0.055538217594119   0.875000000000000   1.0000000
B2   B   0.611146168284058   0.555625669901285   0.875000000000000   1.0000000
B2   B   0.444448669872881   0.055525697820813   0.875000000000000   1.0000000
B2   B   0.944474302178978   0.555551330127077   0.875000000000000   1.0000000
B2   B   0.111187966662764   0.555709266658906   0.375000000000000   1.0000000
B2   B   0.777796684263947   0.055565008798658   0.875000000000000   1.0000000
B2   B   0.275887483556966   0.053181746777895   0.375000000000000   1.0000000
B2   B   0.441871194751277   0.558128805248819   0.375000000000000   1.0000000
B2   B   0.782924277164112   0.558128805248819   0.375000000000000   1.0000000
B2   B   0.611898152915772   0.053777798308465   0.375000000000000   1.0000000
B2   B   0.444417749197045   0.555582250802756   0.875000000000000   1.0000000
B2   B   0.944103222563405   0.055896777436708   0.375000000000000   1.0000000
B2   B   0.277773527118679   0.722226472881326   0.875000000000000   1.0000000
B2   B   0.111051034816986   0.222192184075149   0.875000000000000   1.0000000
B2   B   0.444417749197045   0.222168831727510   0.875000000000000   1.0000000
B2   B   0.611140505748850   0.722300936642595   0.875000000000000   1.0000000
B2   B   0.944474302178978   0.722256305385406   0.875000000000000   1.0000000
B2   B   0.777807815924988   0.222192184075149   0.875000000000000   1.0000000
B2   B   0.111778008392361   0.722555670862798   0.375000000000000   1.0000000
B2   B   0.443960929887559   0.724112516443010   0.375000000000000   1.0000000
B2   B   0.268888706754348   0.215218600313443   0.375000000000000   1.0000000
B2   B   0.784781399686563   0.731111293245556   0.375000000000000   1.0000000
B2   B   0.612996560225614   0.215218600313444   0.375000000000000   1.0000000
B2   B   0.944103222563405   0.221539778459920   0.375000000000000   1.0000000
B2   B   0.111070662360782   0.388865778099956   0.875000000000000   1.0000000
B2   B   0.277773527118679   0.888880387570686   0.875000000000000   1.0000000
B2   B   0.611134221899937   0.888929337639152   0.875000000000000   1.0000000
B2   B   0.444374330098690   0.388853831716022   0.875000000000000   1.0000000
B2   B   0.944461782405903   0.888929337639152   0.875000000000000   1.0000000
B2   B   0.111187966662764   0.888812033337180   0.375000000000000   1.0000000
B2   B   0.777827097560207   0.388859494251057   0.875000000000000   1.0000000
B2   B   0.444290733341145   0.888812033337180   0.375000000000000   1.0000000
B2   B   0.268888706754349   0.387003439774417   0.375000000000000   1.0000000
B2   B   0.275887483556966   0.556039070112542   0.375000000000000   1.0000000
B2   B   0.628062407220020   0.371937592780117   0.375000000000000   1.0000000
B2   B   0.779339216852466   0.892011767038322   0.375000000000000   1.0000000
B2   B   0.946222201691716   0.388101847084298   0.375000000000000   1.0000000
B2   B   0.111106120195799   0.555545573725022   0.875000000000000   1.0000000
B2   B   0.277743694614628   0.055525697820813   0.875000000000000   1.0000000
B2   B   0.777831168272575   0.555582250802756   0.875000000000000   1.0000000
B2   B   0.611134221899937   0.055538217594119   0.875000000000000   1.0000000
B2   B   0.944434991201282   0.055565008798658   0.875000000000000   1.0000000
B2   B   0.055492306778188   0.111049991563666   0.124033108592068   1.0000000
B2   B   0.555473232646864   0.611392291740189   0.123699558691015   1.0000000
B2   B   0.388728071826096   0.110789476985600   0.123625462494372   1.0000000
B2   B   0.889210523014465   0.611271928173921   0.123625462494372   1.0000000
B2   B   0.722224351452348   0.111049991563667   0.124033108592068   1.0000000
B2   B   0.055690023632540   0.777825650186670   0.625589054305252   1.0000000
B2   B   0.388802293220948   0.777825650186670   0.625589054305252   1.0000000
B2   B   0.222015136829742   0.277674235081480   0.626450793735633   1.0000000
B2   B   0.722325764918424   0.777984863170375   0.626450793735633   1.0000000
B2   B   0.555473232646864   0.277414274240082   0.626300441308920   1.0000000
B2   B   0.888950008436273   0.277775648547825   0.625966891407783   1.0000000
B2   B   0.222222222222221   0.777777777777779   0.124922694767536   1.0000000
B2   B   0.055492306778187   0.277775648547825   0.124033108592068   1.0000000
B2   B   0.388607708259846   0.277414274240082   0.123699558691012   1.0000000
B2   B   0.555491695500317   0.777934076454732   0.123710492237110   1.0000000
B2   B   0.889109047621136   0.777934076454732   0.123710492237110   1.0000000
B2   B   0.722325764918424   0.277674235081480   0.123549206264511   1.0000000
B2   B   0.055586260634622   0.944413739365314   0.625873477377697   1.0000000
B2   B   0.388802293220948   0.944309976367255   0.625589054305252   1.0000000
B2   B   0.222065923545299   0.444508304499726   0.626289507763065   1.0000000
B2   B   0.555555555555557   0.444444444444443   0.626093737196745   1.0000000
B2   B   0.722224351452348   0.944507693221888   0.625966891407783   1.0000000
B2   B   0.889109047621136   0.444508304499726   0.626289507763065   1.0000000
B2   B   0.055586260634623   0.444505854602568   0.124126522622253   1.0000000
B2   B   0.222174349813154   0.944309976367257   0.124410945694774   1.0000000
B2   B   0.555494145397348   0.944413739365314   0.124126522622253   1.0000000
B2   B   0.388607708259846   0.444526767353065   0.123699558691014   1.0000000
B2   B   0.888950008436273   0.944507693221888   0.124033108592068   1.0000000
B2   B   0.722585725759918   0.444526767353065   0.123699558691013   1.0000000
B2   B   0.222174349813154   0.611197706778867   0.625589054305252   1.0000000
B2   B   0.055492306778188   0.111049991563667   0.625966891407783   1.0000000
B2   B   0.555473232646864   0.611392291740189   0.626300441308920   1.0000000
B2   B   0.388728071826096   0.110789476985608   0.626374537505469   1.0000000
B2   B   0.889210523014465   0.611271928173921   0.626374537505469   1.0000000
B2   B   0.055690023632540   0.611197706778867   0.124410945694774   1.0000000
B2   B   0.722224351452348   0.111049991563667   0.625966891407783   1.0000000
B2   B   0.222065923545299   0.110890952378834   0.123710492237110   1.0000000
B2   B   0.388728071826096   0.611271928173921   0.123625462494372   1.0000000
B2   B   0.722585725759919   0.611392291740189   0.123699558691015   1.0000000
B2   B   0.555491695500317   0.110890952378834   0.123710492237110   1.0000000
B2   B   0.388728071826096   0.611271928173921   0.626374537505469   1.0000000
B2   B   0.888888888888886   0.111111111111114   0.124267419274184   1.0000000
B2   B   0.222222222222221   0.777777777777779   0.625077305232570   1.0000000
B2   B   0.055492306778187   0.277775648547825   0.625966891407783   1.0000000
B2   B   0.388607708259846   0.277414274240081   0.626300441308920   1.0000000
B2   B   0.555491695500317   0.777934076454732   0.626289507763065   1.0000000
B2   B   0.889109047621136   0.777934076454732   0.626289507763065   1.0000000
B2   B   0.722325764918424   0.277674235081480   0.626450793735633   1.0000000
B2   B   0.055690023632540   0.777825650186670   0.124410945694777   1.0000000
B2   B   0.388802293220948   0.777825650186670   0.124410945694774   1.0000000
B2   B   0.222015136829742   0.277674235081480   0.123549206264514   1.0000000
B2   B   0.722325764918424   0.777984863170375   0.123549206264511   1.0000000
B2   B   0.555473232646864   0.277414274240082   0.123699558691016   1.0000000
B2   B   0.888950008436273   0.277775648547825   0.124033108592068   1.0000000
B2   B   0.055586260634622   0.444505854602568   0.625873477377697   1.0000000
B2   B   0.222174349813154   0.944309976367255   0.625589054305252   1.0000000
B2   B   0.555494145397348   0.944413739365314   0.625873477377697   1.0000000
B2   B   0.388607708259846   0.444526767353065   0.626300441308920   1.0000000
B2   B   0.888950008436273   0.944507693221888   0.625966891407783   1.0000000
B2   B   0.055586260634623   0.944413739365314   0.124126522622253   1.0000000
B2   B   0.722585725759919   0.444526767353065   0.626300441308920   1.0000000
B2   B   0.388802293220948   0.944309976367257   0.124410945694777   1.0000000
B2   B   0.222065923545302   0.444508304499726   0.123710492237110   1.0000000
B2   B   0.222174349813154   0.611197706778867   0.124410945694774   1.0000000
B2   B   0.555555555555557   0.444444444444443   0.123906262803334   1.0000000
B2   B   0.722224351452348   0.944507693221888   0.124033108592068   1.0000000
B2   B   0.889109047621136   0.444508304499726   0.123710492237110   1.0000000
B2   B   0.055690023632540   0.611197706778867   0.625589054305252   1.0000000
B2   B   0.222065923545302   0.110890952378834   0.626289507763065   1.0000000
B2   B   0.722585725759918   0.611392291740189   0.626300441308920   1.0000000
B2   B   0.555491695500317   0.110890952378834   0.626289507763065   1.0000000
B2   B   0.888888888888886   0.111111111111114   0.625732580725919   1.0000000


