data_1
_audit_creation_method   'vasp2cif'
_cell_length_a    14.93631414619966
_cell_length_b    14.936314146199727
_cell_length_c    13.341276283792837
_cell_angle_alpha    90.0
_cell_angle_beta    90.0
_cell_angle_gamma    119.99999999999984

_symmetry_space_group_name_H-M    'P 1'
loop_
_atom_site_label
_atom_site_type_symbol
_atom_site_fract_x
_atom_site_fract_y
_atom_site_fract_z
_atom_site_occupancy
C2   C   0.443272252998953   0.388302793166141   0.375000000000000   1.0000000
C2   C   0.551193418199157   0.442263375766243   0.375000000000000   1.0000000
N2   N   0.111102966745611   0.055565895664180   0.124935653282751   1.0000000
N2   N   0.611137035479844   0.555665454524532   0.124346829655467   1.0000000
N2   N   0.444464526639695   0.055573343756221   0.124927976261782   1.0000000
N2   N   0.944419276718958   0.555540101429676   0.124899602829174   1.0000000
N2   N   0.777799079644519   0.055566206488928   0.124870265333112   1.0000000
N2   N   0.111097131008232   0.722215232170780   0.625094706079753   1.0000000
N2   N   0.444464526639695   0.722224516216810   0.625072023738219   1.0000000
N2   N   0.277759881965312   0.222236313885085   0.625087390831667   1.0000000
N2   N   0.777783539065517   0.722260524053606   0.625131313528906   1.0000000
N2   N   0.611159456414419   0.222187439766537   0.625217569023955   1.0000000
N2   N   0.944437324677517   0.222213499733541   0.625104436046272   1.0000000
N2   N   0.277780105764027   0.722213191744330   0.124916296331445   1.0000000
N2   N   0.111064862956798   0.222199098145063   0.124864787440613   1.0000000
N2   N   0.444471386795499   0.222240385481938   0.124924226763124   1.0000000
N2   N   0.611159456414419   0.722305349981212   0.124782430976045   1.0000000
N2   N   0.944419276718958   0.722212508622617   0.124899602829174   1.0000000
N2   N   0.777812353853302   0.222203431390860   0.124879252231783   1.0000000
N2   N   0.111102322804706   0.888895007691132   0.625087399968478   1.0000000
N2   N   0.444452515346332   0.888892924339830   0.625094391417993   1.0000000
N2   N   0.277759881965312   0.388856901413556   0.625087390831667   1.0000000
N2   N   0.611137035479844   0.388804914288640   0.625653170344533   1.0000000
N2   N   0.777812353853302   0.888942255795770   0.625120747768217   1.0000000
N2   N   0.944446621072834   0.388877369407975   0.625091563821853   1.0000000
N2   N   0.111102966745611   0.388870404414759   0.124935653282751   1.0000000
N2   N   0.277780105764027   0.888900247353027   0.124916296331445   1.0000000
N2   N   0.611134196882365   0.888921556989751   0.124898497366733   1.0000000
N2   N   0.444418490680557   0.388875912006943   0.124763076930190   1.0000000
N2   N   0.944446621072834   0.888902584998188   0.124908436178147   1.0000000
N2   N   0.777783539065517   0.388856348345240   0.124868686471093   1.0000000
N2   N   0.277785021499606   0.555536247478825   0.625075171436030   1.0000000
N2   N   0.111102966745611   0.055565895664180   0.625064346717249   1.0000000
N2   N   0.611137035479844   0.555665454524532   0.625653170344533   1.0000000
N2   N   0.444464526639695   0.055573343756221   0.625072023738219   1.0000000
N2   N   0.944419276718958   0.555540101429676   0.625100397170826   1.0000000
N2   N   0.111102322804706   0.555540648446902   0.124912600031522   1.0000000
N2   N   0.777799079644519   0.055566206488928   0.625129734666888   1.0000000
N2   N   0.277785021499606   0.055582107354116   0.124924828563969   1.0000000
N2   N   0.444471386795499   0.555564334646896   0.124924226763124   1.0000000
N2   N   0.777739271891163   0.555536302612249   0.124851682127337   1.0000000
N2   N   0.611134196882365   0.055545973225943   0.124898497366733   1.0000000
N2   N   0.444471386795499   0.555564334646896   0.625075773236875   1.0000000
N2   N   0.944437324677517   0.055557158277312   0.124895563953728   1.0000000
N2   N   0.277780105764027   0.722213191744330   0.625083703668555   1.0000000
N2   N   0.111064862956798   0.222199098145063   0.625135212559387   1.0000000
N2   N   0.444471386795499   0.222240385481938   0.625075773236875   1.0000000
N2   N   0.611159456414419   0.722305349981212   0.625217569023955   1.0000000
N2   N   0.944419276718958   0.722212508622617   0.625100397170826   1.0000000
N2   N   0.777812353853302   0.222203431390860   0.625120747768217   1.0000000
N2   N   0.111097131008232   0.722215232170780   0.124905293920247   1.0000000
N2   N   0.444464526639695   0.722224516216810   0.124927976261782   1.0000000
N2   N   0.277759881965312   0.222236313885085   0.124912609168333   1.0000000
N2   N   0.777783539065517   0.722260524053606   0.124868686471093   1.0000000
N2   N   0.611159456414419   0.222187439766537   0.124782430976045   1.0000000
N2   N   0.944437324677517   0.222213499733541   0.124895563953728   1.0000000
N2   N   0.111102966745611   0.388870404414759   0.625064346717249   1.0000000
N2   N   0.277780105764027   0.888900247353027   0.625083703668555   1.0000000
N2   N   0.611134196882365   0.888921556989751   0.625101502633267   1.0000000
N2   N   0.444418490680557   0.388875912006943   0.625236923069810   1.0000000
N2   N   0.944446621072834   0.888902584998188   0.625091563821853   1.0000000
N2   N   0.111102322804706   0.888895007691132   0.124912600031522   1.0000000
N2   N   0.777783539065517   0.388856348345240   0.625131313528906   1.0000000
N2   N   0.444452515346332   0.888892924339830   0.124905608582007   1.0000000
N2   N   0.277759881965312   0.388856901413556   0.124912609168333   1.0000000
N2   N   0.277785021499606   0.555536247478825   0.124924828563969   1.0000000
N2   N   0.611137035479844   0.388804914288640   0.124346829655467   1.0000000
N2   N   0.777812353853302   0.888942255795770   0.124879252231783   1.0000000
N2   N   0.944446621072834   0.388877369407975   0.124908436178147   1.0000000
N2   N   0.111102322804706   0.555540648446902   0.625087399968478   1.0000000
N2   N   0.277785021499606   0.055582107354116   0.625075171436030   1.0000000
N2   N   0.777739271891163   0.555536302612249   0.625148317872663   1.0000000
N2   N   0.611134196882365   0.055545973225943   0.625101502633267   1.0000000
N2   N   0.944437324677517   0.055557158277312   0.625104436046272   1.0000000
N2   N   0.055537117082004   0.111074173192424   0.375000000000000   1.0000000
N2   N   0.555528759372471   0.613100528714043   0.375000000000000   1.0000000
N2   N   0.388615627933469   0.111611894888999   0.375000000000000   1.0000000
N2   N   0.889369148708458   0.611351241020900   0.375000000000000   1.0000000
N2   N   0.722231701539725   0.110989285594073   0.375000000000000   1.0000000
N2   N   0.055555503149478   0.777776685053085   0.875000000000000   1.0000000
N2   N   0.388881566474176   0.777777277715479   0.875000000000000   1.0000000
N2   N   0.222217394730046   0.277775364031691   0.875000000000000   1.0000000
N2   N   0.722218582812042   0.777771002627220   0.875000000000000   1.0000000
N2   N   0.555544277750193   0.277765125354819   0.875000000000000   1.0000000
N2   N   0.888888216481814   0.277783959855760   0.875000000000000   1.0000000
N2   N   0.222321961345426   0.777827647339381   0.375000000000000   1.0000000
N2   N   0.055537117082004   0.277796277222915   0.375000000000000   1.0000000
N2   N   0.388398551555842   0.279393864742039   0.375000000000000   1.0000000
N2   N   0.555355244039511   0.778383652074012   0.375000000000000   1.0000000
N2   N   0.889500439137550   0.778257539102176   0.375000000000000   1.0000000
N2   N   0.722456010429152   0.277490770931925   0.375000000000000   1.0000000
N2   N   0.055554918977498   0.944439795640063   0.875000000000000   1.0000000
N2   N   0.388881566474176   0.944437622092033   0.875000000000000   1.0000000
N2   N   0.222220281551637   0.444446677872965   0.875000000000000   1.0000000
N2   N   0.555550363745413   0.444441848539371   0.875000000000000   1.0000000
N2   N   0.722213871470550   0.944438688042548   0.875000000000000   1.0000000
N2   N   0.888889756250384   0.444448559015756   0.875000000000000   1.0000000
N2   N   0.055912707598855   0.444546551299185   0.375000000000000   1.0000000
N2   N   0.222292404427033   0.944462312938691   0.375000000000000   1.0000000
N2   N   0.555356060910562   0.944344697121946   0.375000000000000   1.0000000
N2   N   0.388398551555842   0.442338020147139   0.375000000000000   1.0000000
N2   N   0.889089724208986   0.944612130987192   0.375000000000000   1.0000000
N2   N   0.723179619147487   0.444390858692065   0.375000000000000   1.0000000
N2   N   0.222217804420832   0.611111713388461   0.875000000000000   1.0000000
N2   N   0.055553314386310   0.111104292647494   0.875000000000000   1.0000000
N2   N   0.555544277750193   0.611112485728710   0.875000000000000   1.0000000
N2   N   0.388882631014980   0.111101665051389   0.875000000000000   1.0000000
N2   N   0.888892094427342   0.611112713880343   0.875000000000000   1.0000000
N2   N   0.055878377169526   0.611281471225951   0.375000000000000   1.0000000
N2   N   0.722213871470550   0.111108516761338   0.875000000000000   1.0000000
N2   N   0.222475222064716   0.111282059426581   0.375000000000000   1.0000000
N2   N   0.388615627933469   0.610337066377813   0.375000000000000   1.0000000
N2   N   0.723179619147487   0.612122093788758   0.375000000000000   1.0000000
N2   N   0.555355244039511   0.110304925298834   0.375000000000000   1.0000000
N2   N   0.388882631014980   0.611114299296934   0.875000000000000   1.0000000
N2   N   0.888980069835620   0.111156701584481   0.375000000000000   1.0000000
N2   N   0.222218045501112   0.777775689417224   0.875000000000000   1.0000000
N2   N   0.055553314386310   0.277782355072152   0.875000000000000   1.0000000
N2   N   0.388886721461349   0.277774043732147   0.875000000000000   1.0000000
N2   N   0.555543525362810   0.777776105562083   0.875000000000000   1.0000000
N2   N   0.888889756250384   0.777774530567964   0.875000000000000   1.0000000
N2   N   0.722218582812042   0.277780913518157   0.875000000000000   1.0000000
N2   N   0.055878377169526   0.777930239276911   0.375000000000000   1.0000000
N2   N   0.388762703051985   0.777582542559811   0.375000000000000   1.0000000
N2   N   0.221578517332091   0.277455925332713   0.375000000000000   1.0000000
N2   N   0.722456010429152   0.778298572830564   0.375000000000000   1.0000000
N2   N   0.555528759372471   0.275761563991763   0.375000000000000   1.0000000
N2   N   0.889089724208986   0.277810926555129   0.375000000000000   1.0000000
N2   N   0.055554918977498   0.444448456670764   0.875000000000000   1.0000000
N2   N   0.222217804420832   0.944439424365707   0.875000000000000   1.0000000
N2   N   0.555542438482957   0.944437885908143   0.875000000000000   1.0000000
N2   N   0.388886721461349   0.444446011062538   0.875000000000000   1.0000000
N2   N   0.888888216481814   0.944437589959389   0.875000000000000   1.0000000
N2   N   0.055912707598855   0.944699489632999   0.375000000000000   1.0000000
N2   N   0.722220265864028   0.444446589957382   0.875000000000000   1.0000000
N2   N   0.388762703051985   0.944513493825509   0.375000000000000   1.0000000
N2   N   0.222475222064716   0.444526495971470   0.375000000000000   1.0000000
N2   N   0.222292404427033   0.611163424821678   0.375000000000000   1.0000000
N2   N   0.722231701539725   0.944575749278988   0.375000000000000   1.0000000
N2   N   0.889500439137550   0.444576233368709   0.375000000000000   1.0000000
N2   N   0.055555503149478   0.611112151429728   0.875000000000000   1.0000000
N2   N   0.222220281551637   0.111106937012008   0.875000000000000   1.0000000
N2   N   0.722220265864028   0.611107009239982   0.875000000000000   1.0000000
N2   N   0.555543525362810   0.111100753134064   0.875000000000000   1.0000000
N2   N   0.888886414041301   0.111109873687322   0.875000000000000   1.0000000
B2   B   0.111542033809196   0.055865174404556   0.375000000000000   1.0000000
B2   B   0.610545530886359   0.555826175282586   0.375000000000000   1.0000000
B2   B   0.444290598641902   0.055998527576010   0.375000000000000   1.0000000
B2   B   0.944546895879729   0.555675731373652   0.375000000000000   1.0000000
B2   B   0.777771728637595   0.055552530985466   0.375000000000000   1.0000000
B2   B   0.111097667186187   0.722215500259758   0.875000000000000   1.0000000
B2   B   0.444445051998074   0.722198286433031   0.875000000000000   1.0000000
B2   B   0.277831255694652   0.222260021705730   0.875000000000000   1.0000000
B2   B   0.777732639571635   0.722160426758547   0.875000000000000   1.0000000
B2   B   0.611086286417542   0.222255393137263   0.875000000000000   1.0000000
B2   B   0.944445390328265   0.222234397369004   0.875000000000000   1.0000000
B2   B   0.277795333978838   0.722191215237473   0.375000000000000   1.0000000
B2   B   0.111214816022651   0.222274074677990   0.375000000000000   1.0000000
B2   B   0.444810833440488   0.223705812119906   0.375000000000000   1.0000000
B2   B   0.610834634531024   0.722589260542481   0.375000000000000   1.0000000
B2   B   0.944546895879729   0.722204497839412   0.375000000000000   1.0000000
B2   B   0.777722137819102   0.222290354091717   0.375000000000000   1.0000000
B2   B   0.111108226275090   0.888885383543514   0.875000000000000   1.0000000
B2   B   0.444435226252953   0.888884279793141   0.875000000000000   1.0000000
B2   B   0.277831255694652   0.388904567322251   0.875000000000000   1.0000000
B2   B   0.611079561754042   0.388907031238310   0.875000000000000   1.0000000
B2   B   0.777753561730763   0.888843889364736   0.875000000000000   1.0000000
B2   B   0.944428866305115   0.388902600247612   0.875000000000000   1.0000000
B2   B   0.111542033809196   0.389010192737969   0.375000000000000   1.0000000
B2   B   0.277795333978838   0.888937452074694   0.375000000000000   1.0000000
B2   B   0.610993023777709   0.888958416739709   0.375000000000000   1.0000000
B2   B   0.944708066566554   0.889031542598257   0.375000000000000   1.0000000
B2   B   0.777921445179960   0.389203304660748   0.375000000000000   1.0000000
B2   B   0.277800345792751   0.555549590365378   0.875000000000000   1.0000000
B2   B   0.111130332937157   0.055563786139400   0.875000000000000   1.0000000
B2   B   0.611079561754042   0.555505863849061   0.875000000000000   1.0000000
B2   B   0.444445051998074   0.055580098898378   0.875000000000000   1.0000000
B2   B   0.944410577407900   0.555549440447846   0.875000000000000   1.0000000
B2   B   0.111267178219181   0.555638581526580   0.375000000000000   1.0000000
B2   B   0.777761139215030   0.055547236274183   0.875000000000000   1.0000000
B2   B   0.277915018468200   0.055760232606295   0.375000000000000   1.0000000
B2   B   0.444810833440488   0.554438354653917   0.375000000000000   1.0000000
B2   B   0.777352557587794   0.555342945460565   0.375000000000000   1.0000000
B2   B   0.610993023777709   0.055367940371330   0.375000000000000   1.0000000
B2   B   0.444465663224878   0.555534027542988   0.875000000000000   1.0000000
B2   B   0.944564595284747   0.055603816238121   0.375000000000000   1.0000000
B2   B   0.277780046056169   0.722216357516983   0.875000000000000   1.0000000
B2   B   0.111143098056232   0.222238215694780   0.875000000000000   1.0000000
B2   B   0.444465663224878   0.222264969015226   0.875000000000000   1.0000000
B2   B   0.611086286417542   0.722164226613608   0.875000000000000   1.0000000
B2   B   0.944410577407900   0.722194470293390   0.875000000000000   1.0000000
B2   B   0.777753561730763   0.222243005699356   0.875000000000000   1.0000000
B2   B   0.111239435272352   0.722286384302840   0.375000000000000   1.0000000
B2   B   0.444290598641902   0.721625404399228   0.375000000000000   1.0000000
B2   B   0.278139453909730   0.222715120963325   0.375000000000000   1.0000000
B2   B   0.777921445179960   0.722051473852542   0.375000000000000   1.0000000
B2   B   0.610834634531024   0.221578707321871   0.375000000000000   1.0000000
B2   B   0.944564595284747   0.222294112379961   0.375000000000000   1.0000000
B2   B   0.111130332937157   0.388899880131086   0.875000000000000   1.0000000
B2   B   0.277780046056169   0.888897021872513   0.875000000000000   1.0000000
B2   B   0.611091019235687   0.888861494764685   0.875000000000000   1.0000000
B2   B   0.444493411806101   0.388913372569715   0.875000000000000   1.0000000
B2   B   0.944428866305115   0.888859599390832   0.875000000000000   1.0000000
B2   B   0.111267178219181   0.888961930025930   0.375000000000000   1.0000000
B2   B   0.777732639571635   0.388905546146416   0.875000000000000   1.0000000
B2   B   0.444304115307397   0.888818724320362   0.375000000000000   1.0000000
B2   B   0.278139453909730   0.388757666279734   0.375000000000000   1.0000000
B2   B   0.277915018468200   0.555488119195241   0.375000000000000   1.0000000
B2   B   0.610545530886359   0.388052688937101   0.375000000000000   1.0000000
B2   B   0.777722137819102   0.888765117060713   0.375000000000000   1.0000000
B2   B   0.944708066566554   0.389009857301625   0.375000000000000   1.0000000
B2   B   0.111108226275090   0.555556176064905   0.875000000000000   1.0000000
B2   B   0.277800345792751   0.055584088760709   0.875000000000000   1.0000000
B2   B   0.777722471717456   0.555527902525396   0.875000000000000   1.0000000
B2   B   0.611091019235687   0.055562857804331   0.875000000000000   1.0000000
B2   B   0.944445390328265   0.055544326292597   0.875000000000000   1.0000000
B2   B   0.055563054657027   0.111143244990844   0.125080192065499   1.0000000
B2   B   0.555652491564806   0.611006805951578   0.125207019236397   1.0000000
B2   B   0.388996047105484   0.111317549102309   0.125203847114696   1.0000000
B2   B   0.888673275356461   0.611003304344902   0.125185387907390   1.0000000
B2   B   0.722240391709088   0.111137367137094   0.125079435442344   1.0000000
B2   B   0.055466183520042   0.777744403249457   0.624915104663438   1.0000000
B2   B   0.388942846127176   0.777752039813528   0.624918741188194   1.0000000
B2   B   0.222302092322810   0.277817712828073   0.624845608146371   1.0000000
B2   B   0.722183621647472   0.777724325100555   0.624852219320279   1.0000000
B2   B   0.555652491564806   0.277979018946564   0.624792980763603   1.0000000
B2   B   0.888862124282522   0.277762121267623   0.624917292606900   1.0000000
B2   B   0.222218567670289   0.777775950501813   0.125067515019544   1.0000000
B2   B   0.055563054657027   0.277753142999519   0.125080192065499   1.0000000
B2   B   0.389059390573180   0.277999400914631   0.125461334516139   1.0000000
B2   B   0.555631881072972   0.777734760989558   0.125118072981071   1.0000000
B2   B   0.888766858906518   0.777708696629909   0.125145191117639   1.0000000
B2   B   0.722183621647472   0.277792629880252   0.125147780679721   1.0000000
B2   B   0.055531760300504   0.944463631929222   0.624910899627753   1.0000000
B2   B   0.388942846127176   0.944524139646985   0.624918741188194   1.0000000
B2   B   0.222304480843272   0.444391166903020   0.624840321992777   1.0000000
B2   B   0.555609656049449   0.444471494691389   0.623311967023651   1.0000000
B2   B   0.722240391709088   0.944436357905331   0.624920564557656   1.0000000
B2   B   0.888766858906518   0.444391495609945   0.624854808882361   1.0000000
B2   B   0.055531760300504   0.444401461704610   0.125089100372247   1.0000000
B2   B   0.222248059454757   0.944527382306025   0.125081641328715   1.0000000
B2   B   0.555606579925107   0.944469956629218   0.125075062069321   1.0000000
B2   B   0.389059390573180   0.444393322991884   0.125461334516139   1.0000000
B2   B   0.888862124282522   0.944433336348235   0.125082707393100   1.0000000
B2   B   0.722003563632977   0.444363646644571   0.125291999363674   1.0000000
B2   B   0.222248059454757   0.611054010482068   0.624918358671284   1.0000000
B2   B   0.055563054657027   0.111143244990844   0.624919807934501   1.0000000
B2   B   0.555652491564806   0.611006805951578   0.624792980763603   1.0000000
B2   B   0.388996047105484   0.111317549102309   0.624796152885304   1.0000000
B2   B   0.888673275356461   0.611003304344902   0.624814612092610   1.0000000
B2   B   0.055466183520042   0.611055113603921   0.125084895336562   1.0000000
B2   B   0.722240391709088   0.111137367137094   0.624920564557656   1.0000000
B2   B   0.222304480843272   0.111246647273587   0.125159678007223   1.0000000
B2   B   0.388996047105484   0.611011831336518   0.125203847114696   1.0000000
B2   B   0.722003563632977   0.610973250321741   0.125291999363674   1.0000000
B2   B   0.555631881072972   0.111230453416750   0.125118072981071   1.0000000
B2   B   0.388996047105484   0.611011831336518   0.624796152885304   1.0000000
B2   B   0.888892958625338   0.111113145979340   0.125063701834232   1.0000000
B2   B   0.222218567670289   0.777775950501813   0.624932484980456   1.0000000
B2   B   0.055563054657027   0.277753142999519   0.624919807934501   1.0000000
B2   B   0.389059390573180   0.277999400914631   0.624538665483861   1.0000000
B2   B   0.555631881072972   0.777734760989558   0.624881927018930   1.0000000
B2   B   0.888766858906518   0.777708696629909   0.624854808882361   1.0000000
B2   B   0.722183621647472   0.277792629880252   0.624852219320279   1.0000000
B2   B   0.055466183520042   0.777744403249457   0.125084895336562   1.0000000
B2   B   0.388942846127176   0.777752039813528   0.125081258811806   1.0000000
B2   B   0.222302092322810   0.277817712828073   0.125154391853629   1.0000000
B2   B   0.722183621647472   0.777724325100555   0.125147780679721   1.0000000
B2   B   0.555652491564806   0.277979018946564   0.125207019236397   1.0000000
B2   B   0.888862124282522   0.277762121267623   0.125082707393100   1.0000000
B2   B   0.055531760300504   0.444401461704610   0.624910899627753   1.0000000
B2   B   0.222248059454757   0.944527382306025   0.624918358671284   1.0000000
B2   B   0.555606579925107   0.944469956629218   0.624924937930680   1.0000000
B2   B   0.389059390573180   0.444393322991884   0.624538665483861   1.0000000
B2   B   0.888862124282522   0.944433336348235   0.624917292606900   1.0000000
B2   B   0.055531760300504   0.944463631929222   0.125089100372247   1.0000000
B2   B   0.722003563632977   0.444363646644571   0.624708000636326   1.0000000
B2   B   0.388942846127176   0.944524139646985   0.125081258811806   1.0000000
B2   B   0.222304480843272   0.444391166903020   0.125159678007223   1.0000000
B2   B   0.222248059454757   0.611054010482068   0.125081641328715   1.0000000
B2   B   0.555609656049449   0.444471494691389   0.126688032976349   1.0000000
B2   B   0.722240391709088   0.944436357905331   0.125079435442344   1.0000000
B2   B   0.888766858906518   0.444391495609945   0.125145191117639   1.0000000
B2   B   0.055466183520042   0.611055113603921   0.624915104663438   1.0000000
B2   B   0.222304480843272   0.111246647273587   0.624840321992777   1.0000000
B2   B   0.722003563632977   0.610973250321741   0.624708000636326   1.0000000
B2   B   0.555631881072972   0.111230453416750   0.624881927018930   1.0000000
B2   B   0.888892958625338   0.111113145979340   0.624936298165767   1.0000000


