data_1
_audit_creation_method   'vasp2cif'
_cell_length_a    17.52789999999977
_cell_length_b    17.52789999999977
_cell_length_c    15.0
_cell_angle_alpha    90.0
_cell_angle_beta    90.0
_cell_angle_gamma    119.99999999999916

_symmetry_space_group_name_H-M    'P 1'
loop_
_atom_site_label
_atom_site_type_symbol
_atom_site_fract_x
_atom_site_fract_y
_atom_site_fract_z
_atom_site_occupancy
B2   B   0.904873003741764   0.952530031861520   0.108903853255077   1.0000000
B2   B   0.904740179288652   0.095261567403351   0.106605402970819   1.0000000
B2   B   0.904703498151864   0.238055546132478   0.106062781059192   1.0000000
B2   B   0.904716459113250   0.380876812642578   0.107531324797365   1.0000000
B2   B   0.904845303173684   0.523722386723202   0.109964803449376   1.0000000
B2   B   0.904552183898002   0.666544826937555   0.110868281672093   1.0000000
B2   B   0.904559063284895   0.809430594211977   0.110422439381883   1.0000000
B2   B   0.047603907809972   0.952397815554995   0.107851322459374   1.0000000
B2   B   0.047471683480373   0.095128716730472   0.108903852782076   1.0000000
B2   B   0.047352163106400   0.237934255082350   0.110721958327917   1.0000000
B2   B   0.047318806911047   0.380800245043972   0.111279477010472   1.0000000
B2   B   0.047444743312111   0.523727714552547   0.109996974321524   1.0000000
B2   B   0.047587450345553   0.666605479483355   0.108578486383974   1.0000000
B2   B   0.047536944766964   0.809481204773980   0.107557332523093   1.0000000
B2   B   0.190520544918986   0.952464818326094   0.107557330997096   1.0000000
B2   B   0.190571106824180   0.095442649423189   0.110422435257885   1.0000000
B2   B   0.189859304420591   0.237673066836212   0.116067056220149   1.0000000
B2   B   0.189740911416892   0.380570261557454   0.119287097399784   1.0000000
B2   B   0.189840462810113   0.523601241640345   0.116806285763603   1.0000000
B2   B   0.190544491849453   0.666554008482500   0.111284190475461   1.0000000
B2   B   0.190511764911700   0.809489929629229   0.107893550906849   1.0000000
B2   B   0.333396256221741   0.952414273488313   0.108578488797972   1.0000000
B2   B   0.333456887039322   0.095449556021994   0.110868277295093   1.0000000
B2   B   0.333637400485744   0.238717573521216   0.114393774646142   1.0000000
B2   B   0.331906288946505   0.380766358649266   0.114802505689250   1.0000000
B2   B   0.331910444581993   0.522585649908478   0.115022657413476   1.0000000
B2   B   0.333622800440490   0.666378902333488   0.114927840515389   1.0000000
B2   B   0.333447644837447   0.809457136993653   0.111284194008464   1.0000000
B2   B   0.476273972866547   0.952556837617951   0.109996979632526   1.0000000
B2   B   0.476279354782725   0.095156519502457   0.109964812142376   1.0000000
B2   B   0.476391156718565   0.237687529476198   0.116698721575123   1.0000000
B2   B   0.477414382666506   0.380783144350337   0.114883289698607   1.0000000
B2   B   0.477416134524489   0.668091412758092   0.115022657927483   1.0000000
B2   B   0.476400474149777   0.810161224257853   0.116806291500603   1.0000000
B2   B   0.619201493927975   0.952682877506098   0.111279479117473   1.0000000
B2   B   0.619124857705296   0.095285228168755   0.107531325883366   1.0000000
B2   B   0.619204628020263   0.237957007046046   0.111651683846593   1.0000000
B2   B   0.619391615997660   0.380610118211444   0.119642575172706   1.0000000
B2   B   0.619218424619888   0.522587284536502   0.114883284440612   1.0000000
B2   B   0.619235290805829   0.668095434769385   0.114802505402247   1.0000000
B2   B   0.619431481602564   0.810260857986088   0.119287093051781   1.0000000
B2   B   0.762067485445637   0.952649556420666   0.110721960553912   1.0000000
B2   B   0.761946149628580   0.095298178382008   0.106062783462191   1.0000000
B2   B   0.761957620881472   0.238044084298490   0.106528982260192   1.0000000
B2   B   0.762044815337899   0.380797127410698   0.111651675439593   1.0000000
B2   B   0.762314222699915   0.523610526088453   0.116698713611126   1.0000000
B2   B   0.761284085249893   0.666364280059329   0.114393783274142   1.0000000
B2   B   0.762328604587854   0.810142412261373   0.116067058694146   1.0000000
Si2   Si   0.476154622958977   0.523847032587995   0.043331253072759   1.0000000
N2   N   0.952471527588405   0.904841187954969   0.108657596612312   1.0000000
N2   N   0.952341112303424   0.047660605006580   0.107207706791420   1.0000000
N2   N   0.952141992465531   0.190367092706183   0.106733491429049   1.0000000
N2   N   0.952117271793310   0.333172964761330   0.107323771215694   1.0000000
N2   N   0.952315017759531   0.476065388217795   0.108368434934535   1.0000000
N2   N   0.952450900104004   0.619023656699142   0.109470259386167   1.0000000
N2   N   0.952455608169418   0.761934758444262   0.109069282804138   1.0000000
N2   N   0.095250432306974   0.904751320160976   0.107108495764890   1.0000000
N2   N   0.095160517482953   0.047530191226583   0.108657603109308   1.0000000
N2   N   0.094544651920602   0.189949675864028   0.111761544627125   1.0000000
N2   N   0.094332250725282   0.332868115049221   0.113952784303947   1.0000000
N2   N   0.094514705211043   0.475984240307572   0.112724335715941   1.0000000
N2   N   0.095134580119620   0.619026661446009   0.109642740500556   1.0000000
N2   N   0.095239520679441   0.761908596853354   0.107465414283955   1.0000000
N2   N   0.238093115307648   0.904762190078589   0.107465415175957   1.0000000
N2   N   0.238066970932754   0.047546160794524   0.109069275381141   1.0000000
N2   N   0.237819735364524   0.190193355635868   0.113863245657855   1.0000000
N2   N   0.236187021270382   0.331873608410052   0.121269702732995   1.0000000
N2   N   0.236186958690042   0.475718283760431   0.121614017944273   1.0000000
N2   N   0.237801176568450   0.619056718426081   0.114716870267102   1.0000000
N2   N   0.238050048155961   0.761951586038835   0.109664237312130   1.0000000
N2   N   0.380975009656994   0.904867045663459   0.109642744650559   1.0000000
N2   N   0.380978070487765   0.047550850816113   0.109470267134166   1.0000000
N2   N   0.380946622237021   0.190204091279234   0.114289722939928   1.0000000
N2   N   0.380843343045076   0.333131610766493   0.113858851330621   1.0000000
N2   N   0.374971679845577   0.473217683949506   0.105425546884638   1.0000000
N2   N   0.380837149348616   0.619164648610313   0.114199775492604   1.0000000
N2   N   0.380945020062797   0.762200530311619   0.114716874888102   1.0000000
N2   N   0.524017491920311   0.905486890305032   0.112724349493940   1.0000000
N2   N   0.523936270131323   0.047686644000479   0.108368435379541   1.0000000
N2   N   0.524011565310106   0.189967260099632   0.112791864754308   1.0000000
N2   N   0.524251885788954   0.331909865356898   0.121621408332186   1.0000000
N2   N   0.526788218514160   0.473213378110729   0.105333541157636   1.0000000
N2   N   0.526783975333645   0.625030002293526   0.105425548462640   1.0000000
N2   N   0.524283498852631   0.763814897637937   0.121614015128271   1.0000000
N2   N   0.667133675562749   0.905669496747895   0.113952782090947   1.0000000
N2   N   0.666828704969536   0.047884382455643   0.107323769747699   1.0000000
N2   N   0.666835961654192   0.190381823926689   0.107640417532719   1.0000000
N2   N   0.667115672876339   0.332886137672696   0.114618904275745   1.0000000
N2   N   0.668091798775243   0.475749830221110   0.121621387933186   1.0000000
N2   N   0.666870019877360   0.619158351499894   0.113858853965626   1.0000000
N2   N   0.668128058043727   0.763814736197540   0.121269695602003   1.0000000
N2   N   0.810052036652206   0.905457063113351   0.111761545003130   1.0000000
N2   N   0.809634632570759   0.047859716607404   0.106733501116049   1.0000000
N2   N   0.809535332405384   0.190466322286646   0.104953834129875   1.0000000
N2   N   0.809619914181464   0.333165723506808   0.107640411592724   1.0000000
N2   N   0.810034631455286   0.475990189139874   0.112791844243306   1.0000000
N2   N   0.809797630087707   0.619055081810198   0.114289738292930   1.0000000
N2   N   0.809808306458291   0.762181956419331   0.113863256953850   1.0000000


