data_1
_audit_creation_method   'vasp2cif'
_cell_length_a    14.93631414619966
_cell_length_b    14.936314146199727
_cell_length_c    13.341276283792837
_cell_angle_alpha    90.0
_cell_angle_beta    90.0
_cell_angle_gamma    119.99999999999984

_symmetry_space_group_name_H-M    'P 1'
loop_
_atom_site_label
_atom_site_type_symbol
_atom_site_fract_x
_atom_site_fract_y
_atom_site_fract_z
_atom_site_occupancy
C2   C   0.446797801497337   0.392247359449236   0.375000000000000   1.0000000
N2   N   0.544358845990482   0.443235737519358   0.375000000000000   1.0000000
N2   N   0.111115708972575   0.055581121985255   0.124292394276803   1.0000000
N2   N   0.611142093286873   0.555572297299905   0.125449244122931   1.0000000
N2   N   0.444484006285064   0.055617403259784   0.124518076271189   1.0000000
N2   N   0.944466501132091   0.555586413271231   0.124431301735491   1.0000000
N2   N   0.777850493562550   0.055575332940789   0.124115101108612   1.0000000
N2   N   0.111129254593208   0.722265041155582   0.625938539952958   1.0000000
N2   N   0.444499573348447   0.722259053646195   0.625533865744861   1.0000000
N2   N   0.277764128379778   0.222233929227235   0.625584178512024   1.0000000
N2   N   0.777842341630901   0.722289106761953   0.625542238935054   1.0000000
N2   N   0.611177219637181   0.222249771014446   0.624176619509015   1.0000000
N2   N   0.944498870450629   0.222224193379466   0.625950584198802   1.0000000
N2   N   0.277813010857937   0.722266609215964   0.124476138812188   1.0000000
N2   N   0.111124719610824   0.222224261478362   0.124351621586456   1.0000000
N2   N   0.444414356652280   0.222248220800694   0.125381883541501   1.0000000
N2   N   0.611172896359012   0.722249555783702   0.124358946869516   1.0000000
N2   N   0.944482163589250   0.722292067988833   0.124113741035150   1.0000000
N2   N   0.777850200801744   0.222230479847490   0.124253382702000   1.0000000
N2   N   0.111129812741231   0.888943706587085   0.626058199934800   1.0000000
N2   N   0.444500460898493   0.888951492311477   0.625651904798740   1.0000000
N2   N   0.277796962154945   0.388889800145279   0.625645448385338   1.0000000
N2   N   0.611137316434015   0.388938390490563   0.623897281959166   1.0000000
N2   N   0.777845431294320   0.888931444206300   0.625583326169320   1.0000000
N2   N   0.944481754970077   0.388893482636376   0.625908037813000   1.0000000
N2   N   0.111140666950981   0.388896915836681   0.124167499723589   1.0000000
N2   N   0.277808459289118   0.888948097926335   0.124104834082576   1.0000000
N2   N   0.611179864025671   0.888930432120386   0.124243385517364   1.0000000
N2   N   0.444446170179892   0.388899992878689   0.125152621654808   1.0000000
N2   N   0.944491188246227   0.888950682585688   0.124318934044159   1.0000000
N2   N   0.777839662831209   0.388894253986438   0.125752834469949   1.0000000
N2   N   0.277812313422927   0.555575899292866   0.625562636956145   1.0000000
N2   N   0.111115708972575   0.055581121985255   0.625707605723149   1.0000000
N2   N   0.611142093286873   0.555572297299905   0.624550755877104   1.0000000
N2   N   0.444484006285064   0.055617403259784   0.625481923728681   1.0000000
N2   N   0.944466501132091   0.555586413271231   0.625568698264563   1.0000000
N2   N   0.111129206211246   0.555577136965082   0.124225634966919   1.0000000
N2   N   0.777850493562550   0.055575332940789   0.625884898891350   1.0000000
N2   N   0.277775649476974   0.055598053864413   0.124080866705305   1.0000000
N2   N   0.444485255737936   0.555566161516724   0.124473513730491   1.0000000
N2   N   0.777837643693508   0.555652734102632   0.125523782872575   1.0000000
N2   N   0.611181329127762   0.055601982874187   0.124230947962271   1.0000000
N2   N   0.444485255737936   0.555566161516724   0.625526486269564   1.0000000
N2   N   0.944490943104066   0.055577588669681   0.124509815445319   1.0000000
N2   N   0.277813010857937   0.722266609215964   0.625523861187924   1.0000000
N2   N   0.111124719610821   0.222224261478362   0.625648378413555   1.0000000
N2   N   0.444414356652280   0.222248220800694   0.624618116458523   1.0000000
N2   N   0.611172896359012   0.722249555783702   0.625641053130399   1.0000000
N2   N   0.944482163589250   0.722292067988833   0.625886258964699   1.0000000
N2   N   0.777850200801744   0.222230479847490   0.625746617297854   1.0000000
N2   N   0.111129254593208   0.722265041155582   0.124061460047086   1.0000000
N2   N   0.444499573348447   0.722259053646195   0.124466134255069   1.0000000
N2   N   0.277764128379778   0.222233929227235   0.124415821487973   1.0000000
N2   N   0.777842341630901   0.722289106761953   0.124457761065055   1.0000000
N2   N   0.611177219637181   0.222249771014446   0.125823380490919   1.0000000
N2   N   0.944498870450629   0.222224193379466   0.124049415801197   1.0000000
N2   N   0.111140666950981   0.388896915836681   0.625832500276436   1.0000000
N2   N   0.277808459289118   0.888948097926335   0.625895165917538   1.0000000
N2   N   0.611179864025671   0.888930432120386   0.625756614482681   1.0000000
N2   N   0.444446170179892   0.388899992878689   0.624847378345144   1.0000000
N2   N   0.944491188246227   0.888950682585688   0.625681065955862   1.0000000
N2   N   0.111129812741231   0.888943706587085   0.123941800065310   1.0000000
N2   N   0.777839662831209   0.388894253986438   0.624247165530035   1.0000000
N2   N   0.444500460898493   0.888951492311477   0.124348095201314   1.0000000
N2   N   0.277796962154945   0.388889800145279   0.124354551614648   1.0000000
N2   N   0.277812313422927   0.555575899292866   0.124437363043988   1.0000000
N2   N   0.611137316434015   0.388938390490563   0.126102718041019   1.0000000
N2   N   0.777845431294320   0.888931444206300   0.124416673830616   1.0000000
N2   N   0.944481754970077   0.388893482636376   0.124091962186985   1.0000000
N2   N   0.111129206211246   0.555577136965082   0.625774365033069   1.0000000
N2   N   0.277775649476974   0.055598053864413   0.625919133294835   1.0000000
N2   N   0.777837643693508   0.555652734102632   0.624476217127286   1.0000000
N2   N   0.611181329127762   0.055601982874189   0.625769052037722   1.0000000
N2   N   0.944490943104066   0.055577588669681   0.625490184554725   1.0000000
N2   N   0.055522297743490   0.110985002532166   0.375000000000000   1.0000000
N2   N   0.554717123572781   0.611924337936918   0.375000000000000   1.0000000
N2   N   0.387273535987714   0.110368583201892   0.375000000000000   1.0000000
N2   N   0.891576205336583   0.613221401636284   0.375000000000000   1.0000000
N2   N   0.722370225509090   0.110413956283001   0.375000000000000   1.0000000
N2   N   0.055429629056437   0.777734821340757   0.875000000000000   1.0000000
N2   N   0.388756680725834   0.777740422155978   0.875000000000000   1.0000000
N2   N   0.222101173660312   0.277752622022951   0.875000000000000   1.0000000
N2   N   0.722082184535783   0.777737420225211   0.875000000000000   1.0000000
N2   N   0.555429217467134   0.277742905897337   0.875000000000000   1.0000000
N2   N   0.888755280563329   0.277751159160264   0.875000000000000   1.0000000
N2   N   0.222759724394322   0.777923549642695   0.375000000000000   1.0000000
N2   N   0.055685232700059   0.277661565696853   0.375000000000000   1.0000000
N2   N   0.390606685754006   0.283379824965375   0.375000000000000   1.0000000
N2   N   0.555220491539530   0.777635898601446   0.375000000000000   1.0000000
N2   N   0.888529891736855   0.777430927938134   0.375000000000000   1.0000000
N2   N   0.722965487197195   0.277303642991116   0.375000000000000   1.0000000
N2   N   0.055428780565847   0.944406589111909   0.875000000000000   1.0000000
N2   N   0.388762029258970   0.944401828362496   0.875000000000000   1.0000000
N2   N   0.222097107200306   0.444420152866877   0.875000000000000   1.0000000
N2   N   0.555425433991644   0.444414931659701   0.875000000000000   1.0000000
N2   N   0.722080409602103   0.944405638866070   0.875000000000000   1.0000000
N2   N   0.888759407572422   0.444413766363229   0.875000000000000   1.0000000
N2   N   0.057003460289761   0.444666365728849   0.375000000000000   1.0000000
N2   N   0.222182102606151   0.944445375646641   0.375000000000000   1.0000000
N2   N   0.555353865485192   0.943373253139940   0.375000000000000   1.0000000
N2   N   0.387837760253472   0.442815645908043   0.375000000000000   1.0000000
N2   N   0.888823170498556   0.944123582750721   0.375000000000000   1.0000000
N2   N   0.728030798999532   0.447122624052144   0.375000000000000   1.0000000
N2   N   0.222093554723279   0.611077527780526   0.875000000000000   1.0000000
N2   N   0.055427658560542   0.111078013653267   0.875000000000000   1.0000000
N2   N   0.555419063946120   0.611074431512935   0.875000000000000   1.0000000
N2   N   0.388769504781648   0.111073623535896   0.875000000000000   1.0000000
N2   N   0.888757479184498   0.611067795234543   0.875000000000000   1.0000000
N2   N   0.057017360327704   0.611738526336272   0.375000000000000   1.0000000
N2   N   0.722079176639567   0.111073733237091   0.875000000000000   1.0000000
N2   N   0.223314887249418   0.112787483738191   0.375000000000000   1.0000000
N2   N   0.388575989483791   0.610479431449100   0.375000000000000   1.0000000
N2   N   0.719956059363745   0.609335498135489   0.375000000000000   1.0000000
N2   N   0.555313758941691   0.108750251941281   0.375000000000000   1.0000000
N2   N   0.388757914505178   0.611080144767113   0.875000000000000   1.0000000
N2   N   0.888999622051817   0.110735600188308   0.375000000000000   1.0000000
N2   N   0.222097371640801   0.777735805142745   0.875000000000000   1.0000000
N2   N   0.055428062159414   0.277752788479534   0.875000000000000   1.0000000
N2   N   0.388771547542270   0.277753047659042   0.875000000000000   1.0000000
N2   N   0.555415377255728   0.777739669886257   0.875000000000000   1.0000000
N2   N   0.888756010731461   0.777736340987713   0.875000000000000   1.0000000
N2   N   0.722085893726514   0.277744881536802   0.875000000000000   1.0000000
N2   N   0.056666483984948   0.778620064778684   0.375000000000000   1.0000000
N2   N   0.388901726637389   0.777393693468917   0.375000000000000   1.0000000
N2   N   0.221538044911559   0.277758516093171   0.375000000000000   1.0000000
N2   N   0.721832307911057   0.777351157235780   0.375000000000000   1.0000000
N2   N   0.553423140881629   0.272564144283417   0.375000000000000   1.0000000
N2   N   0.889571078683983   0.277596123427743   0.375000000000000   1.0000000
N2   N   0.055427473813432   0.444418637223518   0.875000000000000   1.0000000
N2   N   0.222100892977213   0.944402799661329   0.875000000000000   1.0000000
N2   N   0.555414706682391   0.944403761342928   0.875000000000000   1.0000000
N2   N   0.388765857949854   0.444420737948702   0.875000000000000   1.0000000
N2   N   0.888755912195638   0.944407583039109   0.875000000000000   1.0000000
N2   N   0.055929454518406   0.944874845416386   0.375000000000000   1.0000000
N2   N   0.722092019404732   0.444409194308554   0.875000000000000   1.0000000
N2   N   0.388695121124658   0.943992521054311   0.375000000000000   1.0000000
N2   N   0.222648385232654   0.444470589226720   0.375000000000000   1.0000000
N2   N   0.222815817152118   0.611231091013308   0.375000000000000   1.0000000
N2   N   0.722155754486068   0.943918022292017   0.375000000000000   1.0000000
N2   N   0.891872312466139   0.444921881813894   0.375000000000000   1.0000000
N2   N   0.055429440689469   0.611073156518805   0.875000000000000   1.0000000
N2   N   0.222101299658287   0.111077227494353   0.875000000000000   1.0000000
N2   N   0.722081801268024   0.611068397528609   0.875000000000000   1.0000000
N2   N   0.555420729821826   0.111070857344505   0.875000000000000   1.0000000
N2   N   0.888754203844453   0.111077707100185   0.875000000000000   1.0000000
B2   B   0.112194617196128   0.056375325481018   0.375000000000000   1.0000000
B2   B   0.607500757287476   0.552217276889892   0.375000000000000   1.0000000
B2   B   0.444803824698226   0.056456481123880   0.375000000000000   1.0000000
B2   B   0.944742287695035   0.555533089581259   0.375000000000000   1.0000000
B2   B   0.777505005606777   0.055442127491607   0.375000000000000   1.0000000
B2   B   0.110947152473228   0.722150972231913   0.875000000000000   1.0000000
B2   B   0.444317060570051   0.722186975391541   0.875000000000000   1.0000000
B2   B   0.277766767788945   0.222230627448441   0.875000000000000   1.0000000
B2   B   0.777599838809918   0.722070946323342   0.875000000000000   1.0000000
B2   B   0.610980660945116   0.222269690846165   0.875000000000000   1.0000000
B2   B   0.944266713419067   0.222227300033407   0.875000000000000   1.0000000
B2   B   0.278014884663530   0.722293743952553   0.375000000000000   1.0000000
B2   B   0.110740855007052   0.221972619054813   0.375000000000000   1.0000000
B2   B   0.450138311359051   0.225089620453084   0.375000000000000   1.0000000
B2   B   0.610863041176610   0.722256219686481   0.375000000000000   1.0000000
B2   B   0.945007274150325   0.722073864049341   0.375000000000000   1.0000000
B2   B   0.777083287675424   0.222953522546180   0.375000000000000   1.0000000
B2   B   0.110996291075455   0.888830616994743   0.875000000000000   1.0000000
B2   B   0.444322600635541   0.888896304086182   0.875000000000000   1.0000000
B2   B   0.277712029327191   0.388873299041712   0.875000000000000   1.0000000
B2   B   0.611012967206260   0.388833953784427   0.875000000000000   1.0000000
B2   B   0.777613873624885   0.888816258557745   0.875000000000000   1.0000000
B2   B   0.944228524730719   0.388873943897819   0.875000000000000   1.0000000
B2   B   0.111453255897476   0.388851791166469   0.375000000000000   1.0000000
B2   B   0.278130409429744   0.889185886147467   0.375000000000000   1.0000000
B2   B   0.610949758298373   0.888581594908300   0.375000000000000   1.0000000
B2   B   0.944188963008942   0.888107931745863   0.375000000000000   1.0000000
B2   B   0.777056493231601   0.391326399104217   0.375000000000000   1.0000000
B2   B   0.277654260499338   0.555526243587090   0.875000000000000   1.0000000
B2   B   0.111031179263963   0.055530657746950   0.875000000000000   1.0000000
B2   B   0.610989375400738   0.555424495997937   0.875000000000000   1.0000000
B2   B   0.444374969207981   0.055602260000331   0.875000000000000   1.0000000
B2   B   0.944221991471714   0.555462571723305   0.875000000000000   1.0000000
B2   B   0.111549361840713   0.555706720095960   0.375000000000000   1.0000000
B2   B   0.777600069838794   0.055557151529330   0.875000000000000   1.0000000
B2   B   0.278490952959404   0.056060648815185   0.375000000000000   1.0000000
B2   B   0.444667494928152   0.555213101774344   0.375000000000000   1.0000000
B2   B   0.777083280153356   0.551152420486036   0.375000000000000   1.0000000
B2   B   0.610803198134001   0.055077055262867   0.375000000000000   1.0000000
B2   B   0.444355921147761   0.555496897235765   0.875000000000000   1.0000000
B2   B   0.944273676768829   0.055181046112328   0.375000000000000   1.0000000
B2   B   0.277641412940615   0.722192859775900   0.875000000000000   1.0000000
B2   B   0.111011355475105   0.222215352833536   0.875000000000000   1.0000000
B2   B   0.444446602198488   0.222259174349388   0.875000000000000   1.0000000
B2   B   0.610969357477006   0.722129600246254   0.875000000000000   1.0000000
B2   B   0.944253177341982   0.722086083664065   0.875000000000000   1.0000000
B2   B   0.777573966448919   0.222252336454821   0.875000000000000   1.0000000
B2   B   0.111576911967425   0.722395563173725   0.375000000000000   1.0000000
B2   B   0.444335143941416   0.721823985620081   0.375000000000000   1.0000000
B2   B   0.279929308575061   0.224958056702885   0.375000000000000   1.0000000
B2   B   0.775941092647466   0.719236695523451   0.375000000000000   1.0000000
B2   B   0.609268639841684   0.223367054803629   0.375000000000000   1.0000000
B2   B   0.944138847473959   0.222211686332042   0.375000000000000   1.0000000
B2   B   0.110961149250955   0.388877929511806   0.875000000000000   1.0000000
B2   B   0.277682514641947   0.888879686541924   0.875000000000000   1.0000000
B2   B   0.610957547385497   0.888867802761605   0.875000000000000   1.0000000
B2   B   0.444426907160038   0.388860603887186   0.875000000000000   1.0000000
B2   B   0.944293961659851   0.888794972069241   0.875000000000000   1.0000000
B2   B   0.111593546332228   0.889151691859859   0.375000000000000   1.0000000
B2   B   0.777560961349699   0.388857121059640   0.875000000000000   1.0000000
B2   B   0.444422550312288   0.888878624306970   0.375000000000000   1.0000000
B2   B   0.277051405635133   0.388075810902689   0.375000000000000   1.0000000
B2   B   0.277868590653429   0.555501098590580   0.375000000000000   1.0000000
B2   B   0.777499863135753   0.888136760423927   0.375000000000000   1.0000000
B2   B   0.945171273112285   0.389246144100335   0.375000000000000   1.0000000
B2   B   0.110930692046283   0.555512912916209   0.875000000000000   1.0000000
B2   B   0.277747796415965   0.055569884986773   0.875000000000000   1.0000000
B2   B   0.777572510191833   0.555396769177047   0.875000000000000   1.0000000
B2   B   0.610958882194141   0.055595149654018   0.875000000000000   1.0000000
B2   B   0.944299539676139   0.055523361714857   0.875000000000000   1.0000000
B2   B   0.055598866530663   0.111114867873299   0.124751958393997   1.0000000
B2   B   0.555779632431124   0.610938520216717   0.125187057598484   1.0000000
B2   B   0.389176878666221   0.111502805779603   0.125512988671804   1.0000000
B2   B   0.888563345664390   0.610891592224399   0.125613626828320   1.0000000
B2   B   0.722265507498565   0.111333773154998   0.124748811623898   1.0000000
B2   B   0.055429028363192   0.777739223605469   0.625560283521988   1.0000000
B2   B   0.388981193992710   0.777914549412191   0.625211894169870   1.0000000
B2   B   0.222341320010831   0.277741895236775   0.625321582380704   1.0000000
B2   B   0.722331971732194   0.777686731504609   0.625151236925978   1.0000000
B2   B   0.555834663138733   0.278167338451860   0.621133714777369   1.0000000
B2   B   0.888742327696686   0.277819908514876   0.625328715345334   1.0000000
B2   B   0.222191513581742   0.777869359026368   0.124574947454304   1.0000000
B2   B   0.055518776664668   0.277762471196338   0.124525611908995   1.0000000
B2   B   0.389233842327487   0.277845682808438   0.125788513083523   1.0000000
B2   B   0.555705811464127   0.777808157221054   0.124675180850347   1.0000000
B2   B   0.888836175863251   0.777660159498542   0.124813948449194   1.0000000
B2   B   0.722122820733297   0.277989295493827   0.126685466370042   1.0000000
B2   B   0.055572231690673   0.944459177839210   0.625446082607056   1.0000000
B2   B   0.389056939802401   0.944776403426430   0.625224450440277   1.0000000
B2   B   0.222248508652441   0.444397220503498   0.625410261785119   1.0000000
B2   B   0.555873911581303   0.444182953523325   0.622665046167810   1.0000000
B2   B   0.722316615458576   0.944530086663125   0.625368513026084   1.0000000
B2   B   0.888498170277954   0.444324214300292   0.624284989517564   1.0000000
B2   B   0.055363391784123   0.444389529809564   0.124550537301124   1.0000000
B2   B   0.222309005253859   0.944614409676815   0.124422006549041   1.0000000
B2   B   0.555701645293226   0.944702960709637   0.124681531609484   1.0000000
B2   B   0.389143007936218   0.444316173501665   0.124956721671286   1.0000000
B2   B   0.888931239477122   0.944433774586071   0.124825926941309   1.0000000
B2   B   0.721953054633435   0.444276741425182   0.129019107392593   1.0000000
B2   B   0.222158849362241   0.611108386357057   0.625275914206091   1.0000000
B2   B   0.055598866530663   0.111114867873301   0.625248041606092   1.0000000
B2   B   0.555779632431124   0.610938520216717   0.624812942401461   1.0000000
B2   B   0.389176878666220   0.111502805779603   0.624487011328172   1.0000000
B2   B   0.888563345664390   0.610891592224399   0.624386373171494   1.0000000
B2   B   0.055284853153287   0.611016149541779   0.124689434493810   1.0000000
B2   B   0.722265507498565   0.111333773154998   0.625251188376128   1.0000000
B2   B   0.222374447129669   0.111202990025771   0.124687153788980   1.0000000
B2   B   0.389015880132966   0.611078417951960   0.124738918464149   1.0000000
B2   B   0.722257546534351   0.610846172803620   0.126198551042750   1.0000000
B2   B   0.555762964308159   0.111583125936805   0.125789622842528   1.0000000
B2   B   0.389015880132966   0.611078417951960   0.625261081535908   1.0000000
B2   B   0.888895352437966   0.111165915300402   0.124613681174445   1.0000000
B2   B   0.222191513581742   0.777869359026368   0.625425052545780   1.0000000
B2   B   0.055518776664668   0.277762471196338   0.625474388090794   1.0000000
B2   B   0.389233842327487   0.277845682808438   0.624211486916454   1.0000000
B2   B   0.555705811464127   0.777808157221054   0.625324819149590   1.0000000
B2   B   0.888836175863251   0.777660159498542   0.625186051550804   1.0000000
B2   B   0.722122820733297   0.277989295493827   0.623314533630091   1.0000000
B2   B   0.055429028363193   0.777739223605469   0.124439716478037   1.0000000
B2   B   0.388981193992710   0.777914549412191   0.124788105830081   1.0000000
B2   B   0.222341320010831   0.277741895236775   0.124678417619301   1.0000000
B2   B   0.722331971732194   0.777686731504609   0.124848763073995   1.0000000
B2   B   0.555834663138733   0.278167338451860   0.128866285222678   1.0000000
B2   B   0.888742327696686   0.277819908514876   0.124671284654645   1.0000000
B2   B   0.055363391784123   0.444389529809564   0.625449462698835   1.0000000
B2   B   0.222309005253859   0.944614409676815   0.625577993450857   1.0000000
B2   B   0.555701645293226   0.944702960709637   0.625318468390664   1.0000000
B2   B   0.389143007936219   0.444316173501665   0.625043278328696   1.0000000
B2   B   0.888931239477122   0.944433774586071   0.625174073058572   1.0000000
B2   B   0.055572231690672   0.944459177839210   0.124553917392914   1.0000000
B2   B   0.721953054633435   0.444276741425182   0.620980892607560   1.0000000
B2   B   0.389056939802401   0.944776403426430   0.124775549559692   1.0000000
B2   B   0.222248508652441   0.444397220503498   0.124589738214887   1.0000000
B2   B   0.222158849362241   0.611108386357057   0.124724085793968   1.0000000
B2   B   0.555873911581303   0.444182953523325   0.127334953832218   1.0000000
B2   B   0.722316615458576   0.944530086663125   0.124631486973946   1.0000000
B2   B   0.888498170277954   0.444324214300292   0.125715010482574   1.0000000
B2   B   0.055284853153285   0.611016149541779   0.625310565506274   1.0000000
B2   B   0.222374447129669   0.111202990025771   0.625312846210960   1.0000000
B2   B   0.722257546534351   0.610846172803620   0.623801448957353   1.0000000
B2   B   0.555762964308159   0.111583125936805   0.624210377157535   1.0000000
B2   B   0.888895352437966   0.111165915300402   0.625386318825655   1.0000000


