data_1
_audit_creation_method   'vasp2cif'
_cell_length_a    17.5279
_cell_length_b    17.52789999999977
_cell_length_c    15.0
_cell_angle_alpha    90.0
_cell_angle_beta    90.0
_cell_angle_gamma    120.00000000000043

_symmetry_space_group_name_H-M    'P 1'
loop_
_atom_site_label
_atom_site_type_symbol
_atom_site_fract_x
_atom_site_fract_y
_atom_site_fract_z
_atom_site_occupancy
B2   B   0.904562545521920   0.952151177860217   0.111011231711795   1.0000000
B2   B   0.904655517255607   0.095144840714499   0.111037329961453   1.0000000
B2   B   0.904689083228264   0.238105664097238   0.111039021547339   1.0000000
B2   B   0.904548120906864   0.380974338445902   0.111003135111788   1.0000000
B2   B   0.904291697813439   0.523820889682395   0.111000802576224   1.0000000
B2   B   0.905089950298792   0.666823025350198   0.111044313797753   1.0000000
B2   B   0.904702786402744   0.809385504024568   0.111034865212196   1.0000000
B2   B   0.047303074540080   0.952024464559810   0.111009213524126   1.0000000
B2   B   0.047256369391405   0.094845223569910   0.111009440892213   1.0000000
B2   B   0.047631461192806   0.238064194611739   0.111004753497846   1.0000000
B2   B   0.047608754632796   0.381005565601852   0.111016161876148   1.0000000
B2   B   0.047192300553102   0.523823848414854   0.111012640811450   1.0000000
B2   B   0.047504444229371   0.666678471288260   0.111017822381463   1.0000000
B2   B   0.047597271579183   0.809503544255553   0.110999768515519   1.0000000
B2   B   0.190271596318635   0.952056741193184   0.111001465084078   1.0000000
B2   B   0.189892418146974   0.094384240863897   0.111043458451302   1.0000000
B2   B   0.189976795498604   0.237312495920648   0.111016411905943   1.0000000
B2   B   0.190955725561104   0.381139833737495   0.111001239089786   1.0000000
B2   B   0.190018127663458   0.524041204001485   0.111046399667652   1.0000000
B2   B   0.190177832318245   0.666848977774353   0.111045137011916   1.0000000
B2   B   0.190350029876057   0.809541429123161   0.110999701657454   1.0000000
B2   B   0.333297013875786   0.952237064656911   0.111020704907223   1.0000000
B2   B   0.333109057546968   0.094341084669875   0.111060014381452   1.0000000
B2   B   0.332474306337670   0.235797597888987   0.111034053528482   1.0000000
B2   B   0.333140178108693   0.377837665090097   0.110974542522843   1.0000000
B2   B   0.333057285845126   0.526320406339487   0.110964373563552   1.0000000
B2   B   0.333068506113501   0.667869533233385   0.111065377590890   1.0000000
B2   B   0.333280027253164   0.809960527232810   0.111048953874102   1.0000000
B2   B   0.476298235014672   0.952359570368854   0.111011429579345   1.0000000
B2   B   0.476291962442344   0.095058584790075   0.111001442519733   1.0000000
B2   B   0.475987077868389   0.237425656286975   0.111031826963023   1.0000000
B2   B   0.474788199883304   0.379067725130160   0.111093154388171   1.0000000
B2   B   0.476003322042517   0.666401830432622   0.111049865384553   1.0000000
B2   B   0.476283944989759   0.809516341236934   0.111057654049281   1.0000000
B2   B   0.619121598735015   0.952286872142676   0.111023131950110   1.0000000
B2   B   0.619129780471008   0.095433229622019   0.111003838665893   1.0000000
B2   B   0.619076685325668   0.238719933575163   0.111009194490644   1.0000000
B2   B   0.618570477463404   0.382099973320252   0.111007895386228   1.0000000
B2   B   0.619431728506806   0.665986929714996   0.111031398078442   1.0000000
B2   B   0.619121461147696   0.809110976809520   0.111002171330733   1.0000000
B2   B   0.761833984728744   0.952209288675216   0.111002297160430   1.0000000
B2   B   0.761866437938085   0.095229823628286   0.111041170900409   1.0000000
B2   B   0.761830336957920   0.238251886615452   0.111049152432145   1.0000000
B2   B   0.761645458837502   0.381193545542376   0.111010458218729   1.0000000
B2   B   0.761671847843597   0.524392359642790   0.111027978416348   1.0000000
B2   B   0.762636332880071   0.666716415912337   0.111044290086922   1.0000000
B2   B   0.761933876514807   0.809339200576462   0.110997420380041   1.0000000
C2   C   0.385363359695905   0.478381507066841   0.110822055171597   1.0000000
C2   C   0.480593037534814   0.525999399650850   0.111109331315058   1.0000000
C2   C   0.526628955502984   0.481034532221903   0.111256549387918   1.0000000
C2   C   0.620556692973800   0.525489215568945   0.111294325445769   1.0000000
N2   N   0.952087622014500   0.904473813058411   0.111005044517174   1.0000000
N2   N   0.952057281111634   0.047315257225922   0.111003016785914   1.0000000
N2   N   0.952300373059017   0.190439342399189   0.111016849224793   1.0000000
N2   N   0.952270396377074   0.333365531147379   0.111003992996544   1.0000000
N2   N   0.951893869605748   0.476193761247412   0.110979589965281   1.0000000
N2   N   0.952318246894935   0.619026200205718   0.111006777923576   1.0000000
N2   N   0.952423100125209   0.761942563933771   0.111016721744596   1.0000000
N2   N   0.095061271772376   0.904575105725490   0.110978932195315   1.0000000
N2   N   0.094735392916751   0.047068091679756   0.111003993101412   1.0000000
N2   N   0.094798263807462   0.189985106310132   0.110989985675246   1.0000000
N2   N   0.095486488853758   0.333466975952289   0.110991768096731   1.0000000
N2   N   0.094800526344479   0.476263314553875   0.111009943873930   1.0000000
N2   N   0.094961458906439   0.619071111733585   0.111010832092660   1.0000000
N2   N   0.095128247977567   0.761888847365235   0.110984828755138   1.0000000
N2   N   0.238031712032662   0.904658645969757   0.110987363708523   1.0000000
N2   N   0.237838763947814   0.047068659372255   0.111026380001533   1.0000000
N2   N   0.237346590169120   0.189289035253432   0.111016684205147   1.0000000
N2   N   0.237879971591411   0.332417890407684   0.110996448458665   1.0000000
N2   N   0.237853073739387   0.476800816424666   0.110999187540619   1.0000000
N2   N   0.237784845053745   0.619428808138496   0.111042081903289   1.0000000
N2   N   0.237991187597113   0.762091731025023   0.111014510732912   1.0000000
N2   N   0.381067792637315   0.904965324980567   0.111011758988003   1.0000000
N2   N   0.381035650479251   0.047251678349514   0.111013058341782   1.0000000
N2   N   0.380777084950708   0.189192871991002   0.111033707215038   1.0000000
N2   N   0.379995482890992   0.330143383892734   0.111015661075402   1.0000000
N2   N   0.380708688446379   0.620911478610856   0.111030089045222   1.0000000
N2   N   0.381048432051000   0.762772410453235   0.111046004001831   1.0000000
N2   N   0.523956807255461   0.904705693884440   0.111014103436993   1.0000000
N2   N   0.523961342173382   0.047577421922176   0.110974378661131   1.0000000
N2   N   0.523905336234104   0.190317803274874   0.111002059470652   1.0000000
N2   N   0.523353880877854   0.332811068014143   0.111008968745788   1.0000000
N2   N   0.524350063281793   0.619018862316956   0.111036416482648   1.0000000
N2   N   0.524003174021005   0.761640433991822   0.111022015064922   1.0000000
N2   N   0.666637811185591   0.904404983148536   0.110993757632001   1.0000000
N2   N   0.666664569585238   0.047618426888259   0.111006871868762   1.0000000
N2   N   0.666632835503961   0.190867080888644   0.111009722247753   1.0000000
N2   N   0.666472908535965   0.334429491078191   0.110982687033575   1.0000000
N2   N   0.666184590716862   0.478404377729995   0.111043240910508   1.0000000
N2   N   0.667485365631724   0.618011922711931   0.111047281879405   1.0000000
N2   N   0.666696539056513   0.761099181181330   0.110975428173640   1.0000000
N2   N   0.809320945975571   0.904468445792892   0.110983441460564   1.0000000
N2   N   0.809390389984481   0.047474793416854   0.111015682360994   1.0000000
N2   N   0.809410654763537   0.190508167113060   0.111030266145575   1.0000000
N2   N   0.809274142674651   0.333490503553126   0.111013358382673   1.0000000
N2   N   0.808827611132797   0.476326079132128   0.110986233071507   1.0000000
N2   N   0.810099453975370   0.619386497050158   0.111030662255399   1.0000000
N2   N   0.809402488771058   0.761712756768630   0.111007846193718   1.0000000


