data_1
_audit_creation_method   'vasp2cif'
_cell_length_a    14.93631414619966
_cell_length_b    14.936314146199727
_cell_length_c    13.341276283792837
_cell_angle_alpha    90.0
_cell_angle_beta    90.0
_cell_angle_gamma    119.99999999999984

_symmetry_space_group_name_H-M    'P 1'
loop_
_atom_site_label
_atom_site_type_symbol
_atom_site_fract_x
_atom_site_fract_y
_atom_site_fract_z
_atom_site_occupancy
Se2   Se   0.555555555555557   0.444444444444443   0.375000000000000   1.0000000
N2   N   0.111095169179281   0.055549290978379   0.125036541832451   1.0000000
N2   N   0.611142142832530   0.555617618998389   0.124737857224855   1.0000000
N2   N   0.444451050399264   0.055562246037472   0.125073655748276   1.0000000
N2   N   0.944437753962529   0.555548949600736   0.125073655748276   1.0000000
N2   N   0.777787176003286   0.055560254668311   0.124999872147073   1.0000000
N2   N   0.111108317499159   0.722220825416243   0.624973788647076   1.0000000
N2   N   0.444451050399264   0.722222137695128   0.624926344251724   1.0000000
N2   N   0.277738648573147   0.222195796321057   0.624913901604176   1.0000000
N2   N   0.777804203678944   0.722261351426853   0.624913901604176   1.0000000
N2   N   0.611123814414581   0.222195796321057   0.624913901604176   1.0000000
N2   N   0.944439745331689   0.222212823996714   0.625000127852927   1.0000000
N2   N   0.277779174583757   0.722220825416243   0.125026211352924   1.0000000
N2   N   0.111090791886919   0.222212062610123   0.125041618190523   1.0000000
N2   N   0.444458865958723   0.222251065250782   0.125185218271441   1.0000000
N2   N   0.611123814414581   0.722261351426853   0.125086098395824   1.0000000
N2   N   0.944437753962529   0.722222137695128   0.125073655748276   1.0000000
N2   N   0.777787937389877   0.222212062610123   0.125041618190523   1.0000000
N2   N   0.111108354566637   0.888891645433363   0.624953292218773   1.0000000
N2   N   0.444449957533396   0.888891645433363   0.624953292218773   1.0000000
N2   N   0.277738648573147   0.388876185585419   0.624913901604176   1.0000000
N2   N   0.611142142832530   0.388857857167470   0.625262142775145   1.0000000
N2   N   0.777787937389877   0.888909208113082   0.624958381809477   1.0000000
N2   N   0.944450709021621   0.388879211534230   0.624963458167549   1.0000000
N2   N   0.111095169179281   0.388879211534230   0.125036541832451   1.0000000
N2   N   0.277779174583757   0.888891682500842   0.125026211352924   1.0000000
N2   N   0.611120788465770   0.888904830820719   0.125036541832451   1.0000000
N2   N   0.444382381001611   0.388857857167470   0.124737857224855   1.0000000
N2   N   0.944450709021621   0.888904830820719   0.125036541832451   1.0000000
N2   N   0.777804203678944   0.388876185585419   0.125086098395824   1.0000000
N2   N   0.277777862304872   0.555548949600736   0.624926344251724   1.0000000
N2   N   0.111095169179281   0.055549290978379   0.624963458167549   1.0000000
N2   N   0.611142142832530   0.555617618998389   0.625262142775145   1.0000000
N2   N   0.444451050399264   0.055562246037472   0.624926344251724   1.0000000
N2   N   0.944437753962529   0.555548949600736   0.624926344251724   1.0000000
N2   N   0.111108354566637   0.555550042466604   0.125046707781227   1.0000000
N2   N   0.777787176003286   0.055560254668311   0.625000127852927   1.0000000
N2   N   0.277777862304872   0.055562246037472   0.125073655748276   1.0000000
N2   N   0.444458865958723   0.555541134041277   0.125185218271441   1.0000000
N2   N   0.777748934749218   0.555541134041277   0.125185218271441   1.0000000
N2   N   0.611120788465770   0.055549290978379   0.125036541832451   1.0000000
N2   N   0.444458865958723   0.555541134041277   0.624814781728559   1.0000000
N2   N   0.944439745331689   0.055560254668311   0.124999872147073   1.0000000
N2   N   0.277779174583757   0.722220825416243   0.624973788647076   1.0000000
N2   N   0.111090791886919   0.222212062610123   0.624958381809477   1.0000000
N2   N   0.444458865958723   0.222251065250782   0.624814781728559   1.0000000
N2   N   0.611123814414581   0.722261351426853   0.624913901604176   1.0000000
N2   N   0.944437753962529   0.722222137695128   0.624926344251724   1.0000000
N2   N   0.777787937389877   0.222212062610123   0.624958381809477   1.0000000
N2   N   0.111108317499159   0.722220825416243   0.125026211352924   1.0000000
N2   N   0.444451050399264   0.722222137695128   0.125073655748276   1.0000000
N2   N   0.277738648573147   0.222195796321057   0.125086098395824   1.0000000
N2   N   0.777804203678944   0.722261351426853   0.125086098395824   1.0000000
N2   N   0.611123814414581   0.222195796321057   0.125086098395824   1.0000000
N2   N   0.944439745331689   0.222212823996714   0.124999872147073   1.0000000
N2   N   0.111095169179281   0.388879211534230   0.624963458167549   1.0000000
N2   N   0.277779174583757   0.888891682500842   0.624973788647076   1.0000000
N2   N   0.611120788465770   0.888904830820719   0.624963458167549   1.0000000
N2   N   0.444382381001611   0.388857857167470   0.625262142775145   1.0000000
N2   N   0.944450709021621   0.888904830820719   0.624963458167549   1.0000000
N2   N   0.111108354566637   0.888891645433363   0.125046707781227   1.0000000
N2   N   0.777804203678944   0.388876185585419   0.624913901604176   1.0000000
N2   N   0.444449957533396   0.888891645433363   0.125046707781227   1.0000000
N2   N   0.277738648573147   0.388876185585419   0.125086098395824   1.0000000
N2   N   0.277777862304872   0.555548949600736   0.125073655748276   1.0000000
N2   N   0.611142142832530   0.388857857167470   0.124737857224855   1.0000000
N2   N   0.777787937389877   0.888909208113082   0.125041618190523   1.0000000
N2   N   0.944450709021621   0.388879211534230   0.125036541832451   1.0000000
N2   N   0.111108354566637   0.555550042466604   0.624953292218773   1.0000000
N2   N   0.277777862304872   0.055562246037472   0.624926344251724   1.0000000
N2   N   0.777748934749218   0.555541134041277   0.624814781728559   1.0000000
N2   N   0.611120788465770   0.055549290978379   0.624963458167549   1.0000000
N2   N   0.944439745331689   0.055560254668311   0.625000127852927   1.0000000
N2   N   0.054560169603207   0.110430961268939   0.375000000000000   1.0000000
N2   N   0.555625837102898   0.619551395873160   0.375000000000000   1.0000000
N2   N   0.387574888674863   0.108483110683068   0.375000000000000   1.0000000
N2   N   0.891516889316932   0.612425111325137   0.375000000000000   1.0000000
N2   N   0.722537458332396   0.110430961268939   0.375000000000000   1.0000000
N2   N   0.055555408108362   0.777779642335026   0.875000000000000   1.0000000
N2   N   0.388890900893328   0.777779642335026   0.875000000000000   1.0000000
N2   N   0.222226133097080   0.277779733215208   0.875000000000000   1.0000000
N2   N   0.722220266784793   0.777773866902920   0.875000000000000   1.0000000
N2   N   0.555547193986735   0.277775620732653   0.875000000000000   1.0000000
N2   N   0.888887715748894   0.277778429655778   0.875000000000000   1.0000000
N2   N   0.222222222222221   0.777777777777779   0.375000000000000   1.0000000
N2   N   0.054560169603207   0.277462541667604   0.375000000000000   1.0000000
N2   N   0.380448604126840   0.269407774563074   0.375000000000000   1.0000000
N2   N   0.555162587640061   0.781081189975493   0.375000000000000   1.0000000
N2   N   0.892585269002097   0.781081189975493   0.375000000000000   1.0000000
N2   N   0.723832447178900   0.276167552821100   0.375000000000000   1.0000000
N2   N   0.055557600504928   0.944442399495073   0.875000000000000   1.0000000
N2   N   0.388890900893328   0.944444591891639   0.875000000000000   1.0000000
N2   N   0.222222365511831   0.444445095130799   0.875000000000000   1.0000000
N2   N   0.555555555555557   0.444444444444443   0.875000000000000   1.0000000
N2   N   0.722221570344222   0.944442619426451   0.875000000000000   1.0000000
N2   N   0.888889396285633   0.444445095130799   0.875000000000000   1.0000000
N2   N   0.055701531963303   0.444736397259935   0.375000000000000   1.0000000
N2   N   0.221795276929131   0.943415473060009   0.375000000000000   1.0000000
N2   N   0.555263602740064   0.944298468036697   0.375000000000000   1.0000000
N2   N   0.380448604126840   0.444374162897102   0.375000000000000   1.0000000
N2   N   0.889569038731061   0.945439830396793   0.375000000000000   1.0000000
N2   N   0.730592225436926   0.444374162897102   0.375000000000000   1.0000000
N2   N   0.222220357664974   0.611109099106671   0.875000000000000   1.0000000
N2   N   0.055557380573548   0.111112284251106   0.875000000000000   1.0000000
N2   N   0.555547193986735   0.611104906587418   0.875000000000000   1.0000000
N2   N   0.388890292647516   0.111113918628374   0.875000000000000   1.0000000
N2   N   0.888886081371626   0.611109707352485   0.875000000000000   1.0000000
N2   N   0.056584526939991   0.611713137202458   0.375000000000000   1.0000000
N2   N   0.722221570344222   0.111112284251106   0.875000000000000   1.0000000
N2   N   0.218918810024507   0.107414730997903   0.375000000000000   1.0000000
N2   N   0.387574888674863   0.612425111325137   0.375000000000000   1.0000000
N2   N   0.730592225436926   0.619551395873160   0.375000000000000   1.0000000
N2   N   0.555162587640061   0.107414730997903   0.375000000000000   1.0000000
N2   N   0.388890292647516   0.611109707352485   0.875000000000000   1.0000000
N2   N   0.888888888888886   0.111111111111114   0.375000000000000   1.0000000
N2   N   0.222222222222221   0.777777777777779   0.875000000000000   1.0000000
N2   N   0.055557380573548   0.277778429655778   0.875000000000000   1.0000000
N2   N   0.388895093412582   0.277775620732653   0.875000000000000   1.0000000
N2   N   0.555554904869201   0.777777634488169   0.875000000000000   1.0000000
N2   N   0.888889396285633   0.777777634488169   0.875000000000000   1.0000000
N2   N   0.722220266784793   0.277779733215208   0.875000000000000   1.0000000
N2   N   0.056584526939991   0.778204723070869   0.375000000000000   1.0000000
N2   N   0.388286862797542   0.778204723070869   0.375000000000000   1.0000000
N2   N   0.219001772308864   0.276167552821100   0.375000000000000   1.0000000
N2   N   0.723832447178900   0.780998227691136   0.375000000000000   1.0000000
N2   N   0.555625837102898   0.269407774563074   0.375000000000000   1.0000000
N2   N   0.889569038731061   0.277462541667604   0.375000000000000   1.0000000
N2   N   0.055557600504928   0.444448534343184   0.875000000000000   1.0000000
N2   N   0.222220357664974   0.944444591891639   0.875000000000000   1.0000000
N2   N   0.555551465656816   0.944442399495073   0.875000000000000   1.0000000
N2   N   0.388895093412582   0.444452806013265   0.875000000000000   1.0000000
N2   N   0.888887715748894   0.944442619426451   0.875000000000000   1.0000000
N2   N   0.055701531963303   0.944298468036697   0.375000000000000   1.0000000
N2   N   0.722224379267348   0.444452806013265   0.875000000000000   1.0000000
N2   N   0.388286862797542   0.943415473060009   0.375000000000000   1.0000000
N2   N   0.218918810024507   0.444837412359939   0.375000000000000   1.0000000
N2   N   0.221795276929131   0.611713137202458   0.375000000000000   1.0000000
N2   N   0.722537458332396   0.945439830396793   0.375000000000000   1.0000000
N2   N   0.892585269002097   0.444837412359939   0.375000000000000   1.0000000
N2   N   0.055555408108362   0.611109099106671   0.875000000000000   1.0000000
N2   N   0.222222365511831   0.111110603714367   0.875000000000000   1.0000000
N2   N   0.722224379267348   0.611104906587418   0.875000000000000   1.0000000
N2   N   0.555554904869201   0.111110603714367   0.875000000000000   1.0000000
N2   N   0.888888888888886   0.111111111111114   0.875000000000000   1.0000000
B2   B   0.109049915868174   0.053960715819449   0.375000000000000   1.0000000
B2   B   0.624866855328544   0.583067043990418   0.375000000000000   1.0000000
B2   B   0.443647756031682   0.053579010488023   0.375000000000000   1.0000000
B2   B   0.946420989511978   0.556352243968318   0.375000000000000   1.0000000
B2   B   0.778211946086617   0.055772639709976   0.375000000000000   1.0000000
B2   B   0.111109173183724   0.722221253258526   0.875000000000000   1.0000000
B2   B   0.444439867229541   0.722224721638184   0.875000000000000   1.0000000
B2   B   0.277774812700524   0.222218358792556   0.875000000000000   1.0000000
B2   B   0.777781641207444   0.722225187299476   0.875000000000000   1.0000000
B2   B   0.611110212758704   0.222218358792556   0.875000000000000   1.0000000
B2   B   0.944444826950427   0.222222987234191   0.875000000000000   1.0000000
B2   B   0.277503257403164   0.722496742596836   0.375000000000000   1.0000000
B2   B   0.108749975597136   0.221041654465232   0.375000000000000   1.0000000
B2   B   0.442607588969639   0.218548511272614   0.375000000000000   1.0000000
B2   B   0.612374293953428   0.729374668869775   0.375000000000000   1.0000000
B2   B   0.946420989511978   0.723402078876995   0.375000000000000   1.0000000
B2   B   0.778958345534768   0.221041654465232   0.375000000000000   1.0000000
B2   B   0.111111147005376   0.888888852994624   0.875000000000000   1.0000000
B2   B   0.444444372655920   0.888888852994624   0.875000000000000   1.0000000
B2   B   0.277774812700524   0.388889787241296   0.875000000000000   1.0000000
B2   B   0.611109906853822   0.388890093146178   0.875000000000000   1.0000000
B2   B   0.777780467195307   0.888894267723943   0.875000000000000   1.0000000
B2   B   0.944449504190480   0.388887859724795   0.875000000000000   1.0000000
B2   B   0.109049915868174   0.388422533382054   0.375000000000000   1.0000000
B2   B   0.277503257403164   0.888339848139657   0.375000000000000   1.0000000
B2   B   0.611577466617946   0.890950084131826   0.375000000000000   1.0000000
B2   B   0.416932956009582   0.375133144671455   0.375000000000000   1.0000000
B2   B   0.946039284180551   0.890950084131826   0.375000000000000   1.0000000
B2   B   0.783667041583018   0.387625706046571   0.375000000000000   1.0000000
B2   B   0.277775278361816   0.555560132770459   0.875000000000000   1.0000000
B2   B   0.111105022200986   0.055550495809520   0.875000000000000   1.0000000
B2   B   0.611109906853822   0.555553147040974   0.875000000000000   1.0000000
B2   B   0.444439867229541   0.055548478924693   0.875000000000000   1.0000000
B2   B   0.944451521075307   0.555560132770459   0.875000000000000   1.0000000
B2   B   0.111277858498592   0.555889050330512   0.375000000000000   1.0000000
B2   B   0.777777012765809   0.055555173049572   0.875000000000000   1.0000000
B2   B   0.276597921123005   0.053579010488023   0.375000000000000   1.0000000
B2   B   0.442607588969639   0.557392411030361   0.375000000000000   1.0000000
B2   B   0.781451488727386   0.557392411030361   0.375000000000000   1.0000000
B2   B   0.611577466617946   0.053960715819449   0.375000000000000   1.0000000
B2   B   0.444440497281108   0.555559502718892   0.875000000000000   1.0000000
B2   B   0.944227360290024   0.055772639709976   0.375000000000000   1.0000000
B2   B   0.277778746741474   0.722221253258526   0.875000000000000   1.0000000
B2   B   0.111105732276057   0.222219532804693   0.875000000000000   1.0000000
B2   B   0.444440497281108   0.222214327895552   0.875000000000000   1.0000000
B2   B   0.611110212758704   0.722225187299476   0.875000000000000   1.0000000
B2   B   0.944451521075307   0.722224721638184   0.875000000000000   1.0000000
B2   B   0.777780467195307   0.222219532804693   0.875000000000000   1.0000000
B2   B   0.111660151860343   0.722496742596836   0.375000000000000   1.0000000
B2   B   0.443647756031682   0.723402078876995   0.375000000000000   1.0000000
B2   B   0.270625331130225   0.216332958416982   0.375000000000000   1.0000000
B2   B   0.783667041583018   0.729374668869775   0.375000000000000   1.0000000
B2   B   0.612374293953428   0.216332958416982   0.375000000000000   1.0000000
B2   B   0.944227360290024   0.221788053913383   0.375000000000000   1.0000000
B2   B   0.111105022200986   0.388887859724795   0.875000000000000   1.0000000
B2   B   0.277778746741474   0.888890826816276   0.875000000000000   1.0000000
B2   B   0.611112140275205   0.888894977799014   0.875000000000000   1.0000000
B2   B   0.444446852959027   0.388890093146178   0.875000000000000   1.0000000
B2   B   0.944449504190480   0.888894977799014   0.875000000000000   1.0000000
B2   B   0.111277858498592   0.888722141501408   0.375000000000000   1.0000000
B2   B   0.777781641207444   0.388889787241296   0.875000000000000   1.0000000
B2   B   0.444110949669488   0.888722141501408   0.375000000000000   1.0000000
B2   B   0.270625331130225   0.387625706046571   0.375000000000000   1.0000000
B2   B   0.276597921123005   0.556352243968318   0.375000000000000   1.0000000
B2   B   0.624866855328544   0.375133144671455   0.375000000000000   1.0000000
B2   B   0.778958345534768   0.891250024402864   0.375000000000000   1.0000000
B2   B   0.946039284180551   0.388422533382054   0.375000000000000   1.0000000
B2   B   0.111111147005376   0.555555627344080   0.875000000000000   1.0000000
B2   B   0.277775278361816   0.055548478924693   0.875000000000000   1.0000000
B2   B   0.777785672104449   0.555559502718892   0.875000000000000   1.0000000
B2   B   0.611112140275205   0.055550495809520   0.875000000000000   1.0000000
B2   B   0.944444826950427   0.055555173049572   0.875000000000000   1.0000000
B2   B   0.055527237141565   0.111079604381800   0.124997777618495   1.0000000
B2   B   0.555602821001278   0.611183304002325   0.124803770350368   1.0000000
B2   B   0.388866608408205   0.111066550149753   0.125113390739905   1.0000000
B2   B   0.888933449850247   0.611133391591796   0.125113390739905   1.0000000
B2   B   0.722219033906899   0.111079604381800   0.124997777618495   1.0000000
B2   B   0.055556588602844   0.777768071798952   0.624977233620828   1.0000000
B2   B   0.388878149862772   0.777768071798952   0.624977233620828   1.0000000
B2   B   0.222180512124615   0.277756922728975   0.625015503083590   1.0000000
B2   B   0.722243077271025   0.777819487875386   0.625015503083590   1.0000000
B2   B   0.555602821001278   0.277752850332288   0.625196229649631   1.0000000
B2   B   0.888920395618200   0.277780966093101   0.625002222381505   1.0000000
B2   B   0.222222222222221   0.777777777777779   0.124999107423628   1.0000000
B2   B   0.055527237141565   0.277780966093101   0.124997777618495   1.0000000
B2   B   0.388816695997675   0.277752850332288   0.124803770350368   1.0000000
B2   B   0.555552326418549   0.777811522958358   0.125005040453282   1.0000000
B2   B   0.888925863206473   0.777811522958358   0.125005040453282   1.0000000
B2   B   0.722243077271025   0.277756922728975   0.124984496916410   1.0000000
B2   B   0.055546078985865   0.944453921014135   0.624994493313437   1.0000000
B2   B   0.388878149862772   0.944443411397155   0.624977233620828   1.0000000
B2   B   0.222188477041643   0.444447673581451   0.624994959546718   1.0000000
B2   B   0.555555555555557   0.444444444444443   0.625254688180390   1.0000000
B2   B   0.722219033906899   0.944472762858434   0.625002222381505   1.0000000
B2   B   0.888925863206473   0.444447673581451   0.624994959546718   1.0000000
B2   B   0.055546078985865   0.444425491305059   0.125005506686562   1.0000000
B2   B   0.222231928201048   0.944443411397155   0.125022766379173   1.0000000
B2   B   0.555574508694941   0.944453921014135   0.125005506686562   1.0000000
B2   B   0.388816695997675   0.444397178998723   0.124803770350368   1.0000000
B2   B   0.888920395618200   0.944472762858434   0.124997777618495   1.0000000
B2   B   0.722247149667712   0.444397178998723   0.124803770350368   1.0000000
B2   B   0.222231928201048   0.611121850137228   0.624977233620828   1.0000000
B2   B   0.055527237141565   0.111079604381800   0.625002222381505   1.0000000
B2   B   0.555602821001278   0.611183304002325   0.625196229649631   1.0000000
B2   B   0.388866608408205   0.111066550149753   0.624886609260095   1.0000000
B2   B   0.888933449850247   0.611133391591796   0.624886609260095   1.0000000
B2   B   0.055556588602844   0.611121850137228   0.125022766379173   1.0000000
B2   B   0.722219033906899   0.111079604381800   0.625002222381505   1.0000000
B2   B   0.222188477041643   0.111074136793527   0.125005040453282   1.0000000
B2   B   0.388866608408205   0.611133391591796   0.125113390739905   1.0000000
B2   B   0.722247149667712   0.611183304002325   0.124803770350368   1.0000000
B2   B   0.555552326418549   0.111074136793527   0.125005040453282   1.0000000
B2   B   0.388866608408205   0.611133391591796   0.624886609260095   1.0000000
B2   B   0.888888888888886   0.111111111111114   0.124992359349490   1.0000000
B2   B   0.222222222222221   0.777777777777779   0.625000892576372   1.0000000
B2   B   0.055527237141565   0.277780966093101   0.625002222381505   1.0000000
B2   B   0.388816695997675   0.277752850332288   0.625196229649631   1.0000000
B2   B   0.555552326418549   0.777811522958358   0.624994959546718   1.0000000
B2   B   0.888925863206473   0.777811522958358   0.624994959546718   1.0000000
B2   B   0.722243077271025   0.277756922728975   0.625015503083590   1.0000000
B2   B   0.055556588602844   0.777768071798952   0.125022766379173   1.0000000
B2   B   0.388878149862772   0.777768071798952   0.125022766379173   1.0000000
B2   B   0.222180512124615   0.277756922728975   0.124984496916410   1.0000000
B2   B   0.722243077271025   0.777819487875386   0.124984496916410   1.0000000
B2   B   0.555602821001278   0.277752850332288   0.124803770350368   1.0000000
B2   B   0.888920395618200   0.277780966093101   0.124997777618495   1.0000000
B2   B   0.055546078985865   0.444425491305059   0.624994493313437   1.0000000
B2   B   0.222231928201048   0.944443411397155   0.624977233620828   1.0000000
B2   B   0.555574508694941   0.944453921014135   0.624994493313437   1.0000000
B2   B   0.388816695997675   0.444397178998723   0.625196229649631   1.0000000
B2   B   0.888920395618200   0.944472762858434   0.625002222381505   1.0000000
B2   B   0.055546078985865   0.944453921014135   0.125005506686562   1.0000000
B2   B   0.722247149667712   0.444397178998723   0.625196229649631   1.0000000
B2   B   0.388878149862772   0.944443411397155   0.125022766379173   1.0000000
B2   B   0.222188477041643   0.444447673581451   0.125005040453282   1.0000000
B2   B   0.222231928201048   0.611121850137228   0.125022766379173   1.0000000
B2   B   0.555555555555557   0.444444444444443   0.124745311819610   1.0000000
B2   B   0.722219033906899   0.944472762858434   0.124997777618495   1.0000000
B2   B   0.888925863206473   0.444447673581451   0.125005040453282   1.0000000
B2   B   0.055556588602844   0.611121850137228   0.624977233620828   1.0000000
B2   B   0.222188477041643   0.111074136793527   0.624994959546718   1.0000000
B2   B   0.722247149667712   0.611183304002325   0.625196229649631   1.0000000
B2   B   0.555552326418549   0.111074136793527   0.624994959546718   1.0000000
B2   B   0.888888888888886   0.111111111111114   0.625007640650511   1.0000000


