data_1
_audit_creation_method   'vasp2cif'
_cell_length_a    17.52789999999977
_cell_length_b    17.52789999999977
_cell_length_c    15.0
_cell_angle_alpha    90.0
_cell_angle_beta    90.0
_cell_angle_gamma    119.99999999999916

_symmetry_space_group_name_H-M    'P 1'
loop_
_atom_site_label
_atom_site_type_symbol
_atom_site_fract_x
_atom_site_fract_y
_atom_site_fract_z
_atom_site_occupancy
B2   B   0.909330601515055   0.954187946905581   0.110722035971995   1.0000000
B2   B   0.909052200582715   0.096005142606743   0.110764056075969   1.0000000
B2   B   0.908952638374264   0.237926449898829   0.110730913884366   1.0000000
B2   B   0.908955551275975   0.380233295443372   0.110698803021936   1.0000000
B2   B   0.908079571147532   0.522791167600509   0.110743255241596   1.0000000
B2   B   0.907141577983881   0.665283383980199   0.110757792543949   1.0000000
B2   B   0.904195901837707   0.807185730099086   0.110728066460227   1.0000000
B2   B   0.050540984112994   0.953850409590774   0.110696421792239   1.0000000
B2   B   0.052777230292873   0.097548712174093   0.110775006448042   1.0000000
B2   B   0.052064815539187   0.238989461648307   0.110805346588486   1.0000000
B2   B   0.050877728002529   0.381232311394214   0.110742720862787   1.0000000
B2   B   0.049430405692420   0.524367435829732   0.110723104700185   1.0000000
B2   B   0.049153400609813   0.667535081228873   0.110740858974733   1.0000000
B2   B   0.048962920540145   0.810501912124153   0.110726703683029   1.0000000
B2   B   0.193367226269918   0.955239175282738   0.110691812303456   1.0000000
B2   B   0.196715684845314   0.100194296452899   0.110713163669809   1.0000000
B2   B   0.196628359935581   0.241517146780733   0.110760892006748   1.0000000
B2   B   0.193597419528678   0.382105778411882   0.110739464743880   1.0000000
B2   B   0.189951240225095   0.525150446123421   0.110710157124344   1.0000000
B2   B   0.190081950481258   0.668710763434740   0.110745061376920   1.0000000
B2   B   0.191773590226051   0.811787521213354   0.110737360877254   1.0000000
B2   B   0.335611031400143   0.955170851452422   0.110725247663455   1.0000000
B2   B   0.337898313741679   0.099511447303434   0.110727847657422   1.0000000
B2   B   0.344857912563212   0.248600412362922   0.110762218631536   1.0000000
B2   B   0.339913127041352   0.384837491896684   0.110760072651337   1.0000000
B2   B   0.329352871052649   0.526838630218033   0.110703161235853   1.0000000
B2   B   0.329718231946108   0.669897519840135   0.110747435901556   1.0000000
B2   B   0.334130496232764   0.812379958743965   0.110794979888623   1.0000000
B2   B   0.478080760483777   0.953687341288088   0.110757498869443   1.0000000
B2   B   0.479470894334135   0.096045877818458   0.110758894698745   1.0000000
B2   B   0.482171944236444   0.239760062829694   0.110786647439085   1.0000000
B2   B   0.503249323003523   0.398863869082941   0.110732442006862   1.0000000
B2   B   0.466998726101670   0.667759976773312   0.110682779325751   1.0000000
B2   B   0.476782546973582   0.811406766715453   0.110755109121999   1.0000000
B2   B   0.621301208890581   0.954349667205808   0.110759618802283   1.0000000
B2   B   0.622167674225572   0.094761063806166   0.110737605610350   1.0000000
B2   B   0.623317071154482   0.235023996227708   0.110736357242453   1.0000000
B2   B   0.625788165405121   0.373950306173327   0.110769321951646   1.0000000
B2   B   0.609071803630569   0.496672153759939   0.110687030337021   1.0000000
B2   B   0.620759110580708   0.814190940173923   0.110684880588750   1.0000000
B2   B   0.765347602350869   0.953622603264821   0.110737938099431   1.0000000
B2   B   0.765593409304719   0.095283564779347   0.110726443913618   1.0000000
B2   B   0.766171881861270   0.236737121731860   0.110707239750265   1.0000000
B2   B   0.767188246208981   0.378205177067719   0.110712580905058   1.0000000
B2   B   0.765247504495340   0.518830148198873   0.110727915332815   1.0000000
B2   B   0.760492515872732   0.656046338032911   0.110772401963902   1.0000000
B2   B   0.766514175577312   0.812348682494755   0.110740327710560   1.0000000
Ga2   Ga   0.615991170374632   0.658271982776611   0.110818791246687   1.0000000
N2   N   0.954532016628850   0.904417186948537   0.110688816780400   1.0000000
N2   N   0.957385072806984   0.049380782804706   0.110748559840681   1.0000000
N2   N   0.956835547713811   0.190953104159795   0.110757968853787   1.0000000
N2   N   0.956359852319674   0.332878528908667   0.110708415984436   1.0000000
N2   N   0.955489698239931   0.475443016143052   0.110709936841230   1.0000000
N2   N   0.955138910700879   0.618446611508188   0.110738464080999   1.0000000
N2   N   0.953752693758149   0.761400348883229   0.110721431548023   1.0000000
N2   N   0.097794929796982   0.906268145804903   0.110686623537330   1.0000000
N2   N   0.100129495117871   0.050141136601669   0.110707101389550   1.0000000
N2   N   0.100642116918505   0.192675760945303   0.110780986744225   1.0000000
N2   N   0.098626620562425   0.333925909510248   0.110767007399267   1.0000000
N2   N   0.096095693735452   0.476426267939421   0.110711062028857   1.0000000
N2   N   0.095962146183485   0.619825564926587   0.110718687256017   1.0000000
N2   N   0.096707883068655   0.763162891153974   0.110719102726968   1.0000000
N2   N   0.240213396347350   0.907074248367501   0.110695247377592   1.0000000
N2   N   0.242179290718172   0.050734238673889   0.110680676238992   1.0000000
N2   N   0.246322065950908   0.196473541890763   0.110723687390712   1.0000000
N2   N   0.243278856504262   0.336438375018941   0.110731215919925   1.0000000
N2   N   0.236121767221474   0.477027401422977   0.110666900529803   1.0000000
N2   N   0.235804759493054   0.620613981294005   0.110709004781330   1.0000000
N2   N   0.238845574357068   0.764085964593069   0.110751705449346   1.0000000
N2   N   0.382707580216313   0.907167400193190   0.110745106138958   1.0000000
N2   N   0.384043236242892   0.049930701836673   0.110720621381058   1.0000000
N2   N   0.386562612161962   0.194405563970476   0.110740069486586   1.0000000
N2   N   0.395668828670287   0.345890747486806   0.110739404600103   1.0000000
N2   N   0.376029826023329   0.479897399795201   0.110722063533051   1.0000000
N2   N   0.373731185808057   0.621608655152455   0.110728157656311   1.0000000
N2   N   0.380995497946380   0.764866453510478   0.110766492012175   1.0000000
N2   N   0.525648128119055   0.906359418021233   0.110752999569104   1.0000000
N2   N   0.526784595276564   0.048076115691503   0.110737149646319   1.0000000
N2   N   0.528275776327061   0.189823989005963   0.110752091034122   1.0000000
N2   N   0.532054786166644   0.332228407774814   0.110776343399581   1.0000000
N2   N   0.464330476199814   0.523641600049852   0.111050019263471   1.0000000
N2   N   0.500634140610138   0.611112408462036   0.110675972876239   1.0000000
N2   N   0.523701668713474   0.763519193399466   0.110660249505115   1.0000000
N2   N   0.669447730514395   0.908539538595763   0.110716486174780   1.0000000
N2   N   0.670223611306843   0.048409762122038   0.110722155789363   1.0000000
N2   N   0.671183395940206   0.188498113713765   0.110709859407397   1.0000000
N2   N   0.673325069161487   0.328079449725598   0.110727796464994   1.0000000
N2   N   0.672538807517125   0.466446957205646   0.110715294722306   1.0000000
N2   N   0.667680770268616   0.595919207256894   0.110696326040384   1.0000000
N2   N   0.673880272670214   0.774980743769107   0.110681110055897   1.0000000
N2   N   0.814791359770389   0.907597858877252   0.110723507844632   1.0000000
N2   N   0.813690369350199   0.048497319001416   0.110724070366694   1.0000000
N2   N   0.813994726090188   0.189891756027729   0.110704248422781   1.0000000
N2   N   0.814754138417228   0.331350294396125   0.110677318871912   1.0000000
N2   N   0.814417871189551   0.473129300626966   0.110711565487025   1.0000000
N2   N   0.813707548718606   0.615072494843174   0.110738986925884   1.0000000
N2   N   0.807809866307145   0.757270620855415   0.110744273933825   1.0000000


