data_1
_audit_creation_method   'vasp2cif'
_cell_length_a    17.52789999999977
_cell_length_b    17.52789999999977
_cell_length_c    15.0
_cell_angle_alpha    90.0
_cell_angle_beta    90.0
_cell_angle_gamma    119.99999999999916

_symmetry_space_group_name_H-M    'P 1'
loop_
_atom_site_label
_atom_site_type_symbol
_atom_site_fract_x
_atom_site_fract_y
_atom_site_fract_z
_atom_site_occupancy
B2   B   0.905715225154080   0.953816600076880   0.123484739668268   1.0000000
B2   B   0.905758934986890   0.096772025408600   0.118937639073929   1.0000000
B2   B   0.905375287582724   0.239263376257175   0.112064467510057   1.0000000
B2   B   0.904215422853486   0.381455684863467   0.106808518123740   1.0000000
B2   B   0.902258130388040   0.523535998489908   0.105524204376074   1.0000000
B2   B   0.902983778085573   0.666007133979280   0.112124465203003   1.0000000
B2   B   0.904698369993846   0.809950506412518   0.121587266990953   1.0000000
B2   B   0.047393210475225   0.952024533079568   0.122399332980937   1.0000000
B2   B   0.048495216979899   0.096031073603745   0.119531222202097   1.0000000
B2   B   0.048985753459498   0.239131503452114   0.112418074451445   1.0000000
B2   B   0.048681987103559   0.381452175467723   0.107195061599175   1.0000000
B2   B   0.047432600557266   0.523474138342387   0.106506959658023   1.0000000
B2   B   0.046596642942483   0.665742241073148   0.110800492799250   1.0000000
B2   B   0.046634000878007   0.808452066077044   0.118332111179156   1.0000000
B2   B   0.189547635820871   0.950747201966886   0.121117826123047   1.0000000
B2   B   0.189868137481612   0.093892484574263   0.119768386277272   1.0000000
B2   B   0.191887478196135   0.238352225893176   0.111352535181469   1.0000000
B2   B   0.193092548312914   0.381398464758136   0.105057883838696   1.0000000
B2   B   0.192674354350050   0.523528361516808   0.105450257459515   1.0000000
B2   B   0.190521276107638   0.665731289335518   0.110315843204221   1.0000000
B2   B   0.189773673477339   0.808127690601052   0.116686580173209   1.0000000
B2   B   0.332659219735252   0.950736602205740   0.119885449826943   1.0000000
B2   B   0.332091266257761   0.092677942542828   0.117172337307960   1.0000000
B2   B   0.331723886308335   0.234437478323856   0.106282421762150   1.0000000
B2   B   0.336786856738086   0.379753733062708   0.095016042715227   1.0000000
B2   B   0.338841641768501   0.523744814035312   0.102082843296191   1.0000000
B2   B   0.334432841261976   0.666001258002977   0.111078030541090   1.0000000
B2   B   0.333241753253687   0.808455865123988   0.116749602827111   1.0000000
B2   B   0.476078606240692   0.951996393999502   0.119887257532888   1.0000000
B2   B   0.475511097984194   0.093834376500064   0.117469068486841   1.0000000
B2   B   0.474145313713561   0.234398499207014   0.105304968685926   1.0000000
B2   B   0.468705795814491   0.366245706991437   0.058572029448796   1.0000000
B2   B   0.488909717795340   0.530323682790126   0.099895838514928   1.0000000
B2   B   0.477815676485395   0.668073209697288   0.117559627732855   1.0000000
B2   B   0.476673158837716   0.809941001652912   0.119795985245564   1.0000000
B2   B   0.619529360498240   0.953785825918391   0.121598490998945   1.0000000
B2   B   0.619002348162682   0.095995696846696   0.116931711508668   1.0000000
B2   B   0.617920075614676   0.238309891455155   0.109279383812431   1.0000000
B2   B   0.614350565216211   0.379771829956411   0.094264899672916   1.0000000
B2   B   0.612876145170649   0.530373351284652   0.099914395352210   1.0000000
B2   B   0.621443173906612   0.671521334653869   0.123364741218184   1.0000000
B2   B   0.620039242188639   0.811954452456620   0.124807906946804   1.0000000
B2   B   0.762883039984084   0.954354844317690   0.123567418979154   1.0000000
B2   B   0.762455353854424   0.096756896008562   0.117791672634733   1.0000000
B2   B   0.761628442114983   0.239120571620893   0.110878255145569   1.0000000
B2   B   0.759731608655678   0.381409557561530   0.104142704061988   1.0000000
B2   B   0.756308607372480   0.523772441518563   0.102160249979339   1.0000000
B2   B   0.761667584181493   0.668081146388164   0.118242425489789   1.0000000
B2   B   0.763293904197514   0.811952442490194   0.125585912067562   1.0000000
Ga2   Ga   0.523438300465668   0.475650225610632   0.968830304676065   1.0000000
N2   N   0.952383077794161   0.905121283867290   0.123188830537182   1.0000000
N2   N   0.953294646941740   0.048973564084512   0.121314339480057   1.0000000
N2   N   0.953479283356191   0.191925699952510   0.114592011452152   1.0000000
N2   N   0.952921567314167   0.334397759853057   0.108369664448176   1.0000000
N2   N   0.951379089013820   0.476544373203503   0.105659796618170   1.0000000
N2   N   0.950847758182728   0.618599939021935   0.108685878203625   1.0000000
N2   N   0.951228901447777   0.761209100029882   0.117789257486292   1.0000000
N2   N   0.094337784207692   0.903594363463657   0.121505576374063   1.0000000
N2   N   0.094939558761942   0.047177546179890   0.121724881913529   1.0000000
N2   N   0.096492760541010   0.191363390456189   0.114871777607307   1.0000000
N2   N   0.097237312341470   0.334362775217008   0.108054970016938   1.0000000
N2   N   0.096573591071140   0.476540952940813   0.105776486762744   1.0000000
N2   N   0.094951931287170   0.618526002536812   0.108579017363954   1.0000000
N2   N   0.094327850898367   0.760778859696213   0.115233935756277   1.0000000
N2   N   0.237305551808266   0.903157291116030   0.119942891066193   1.0000000
N2   N   0.237000431178579   0.045713970814059   0.120701432727405   1.0000000
N2   N   0.237319245135575   0.188760762286680   0.115032711131656   1.0000000
N2   N   0.241142623359223   0.334062897662324   0.104608532045096   1.0000000
N2   N   0.242263816351880   0.476665500139915   0.102885045432514   1.0000000
N2   N   0.239149039052385   0.618598860339985   0.108054026931657   1.0000000
N2   N   0.237856962943302   0.760780810281702   0.114437640650022   1.0000000
N2   N   0.380710570027887   0.903590694961865   0.119457065394306   1.0000000
N2   N   0.380212170478077   0.045687359731101   0.119312018855743   1.0000000
N2   N   0.379177530899565   0.186884434711727   0.109682227712463   1.0000000
N2   N   0.378613414433011   0.327326563148107   0.088931829705970   1.0000000
N2   N   0.390341414517564   0.476973825451635   0.095248022087797   1.0000000
N2   N   0.383216047371100   0.618843491174058   0.109319008447338   1.0000000
N2   N   0.381407655050772   0.761222250933223   0.116063563737150   1.0000000
N2   N   0.524182119627361   0.905102565385009   0.120969119666393   1.0000000
N2   N   0.523711116444030   0.047125187610967   0.118836981516170   1.0000000
N2   N   0.522915608634257   0.188688351961881   0.112932367605456   1.0000000
N2   N   0.520082871888929   0.327350670357090   0.088332448108842   1.0000000
N2   N   0.526882943364642   0.622120281792496   0.119508924253070   1.0000000
N2   N   0.524823714525265   0.763099197256929   0.122074301629522   1.0000000
N2   N   0.667588043448846   0.906828227188310   0.124077154408250   1.0000000
N2   N   0.667119257322736   0.048934553790834   0.119175655466458   1.0000000
N2   N   0.666340575823066   0.191325427103788   0.112494563544797   1.0000000
N2   N   0.664345601003587   0.334058482993428   0.103222641566463   1.0000000
N2   N   0.658060784771679   0.477005506026442   0.095132517973931   1.0000000
N2   N   0.666635761749277   0.622138567445045   0.119688473312816   1.0000000
N2   N   0.668391855789842   0.765417690660851   0.126761267509053   1.0000000
N2   N   0.810659691709612   0.906835790457070   0.125056952747700   1.0000000
N2   N   0.810433667418738   0.049428217289816   0.120541256388469   1.0000000
N2   N   0.809914007025353   0.191911134786843   0.113534552728079   1.0000000
N2   N   0.808573083340957   0.334372224625571   0.107103637440460   1.0000000
N2   N   0.805818286349810   0.476690663425086   0.102658184486702   1.0000000
N2   N   0.807036282363530   0.618851724059625   0.109954638267609   1.0000000
N2   N   0.809682758955756   0.763097231369067   0.123306076894619   1.0000000


