data_1
_audit_creation_method   'vasp2cif'
_cell_length_a    17.52789999999977
_cell_length_b    17.52789999999977
_cell_length_c    15.0
_cell_angle_alpha    90.0
_cell_angle_beta    90.0
_cell_angle_gamma    119.99999999999916

_symmetry_space_group_name_H-M    'P 1'
loop_
_atom_site_label
_atom_site_type_symbol
_atom_site_fract_x
_atom_site_fract_y
_atom_site_fract_z
_atom_site_occupancy
P2   P   0.407764652384097   0.480311513517161   0.111052105948504   1.0000000
B2   B   0.908659608510528   0.954802390871944   0.110676535176490   1.0000000
B2   B   0.908350545129573   0.097788017722856   0.110758149214073   1.0000000
B2   B   0.907798943809947   0.240352450110560   0.110766679107974   1.0000000
B2   B   0.906306464835094   0.382357863795753   0.110699530185131   1.0000000
B2   B   0.903603317779068   0.524044399055720   0.110729167275274   1.0000000
B2   B   0.905346647422314   0.666465907781185   0.110858781475168   1.0000000
B2   B   0.907688093126305   0.810808303717904   0.110757666200455   1.0000000
B2   B   0.048842322052475   0.950756164594356   0.110664451348392   1.0000000
B2   B   0.049537634545233   0.094586608529664   0.110728413650134   1.0000000
B2   B   0.050890634790089   0.239229342517451   0.110834488452614   1.0000000
B2   B   0.050798951126603   0.382216529705229   0.110718516033342   1.0000000
B2   B   0.048832709995826   0.524055142225148   0.110670068292065   1.0000000
B2   B   0.048314584681960   0.665764800167681   0.110759121634263   1.0000000
B2   B   0.048485337800009   0.807946870110605   0.110745514825269   1.0000000
B2   B   0.190724605594386   0.948753419353590   0.110678250607378   1.0000000
B2   B   0.189543864049030   0.089733649886498   0.110663614836749   1.0000000
B2   B   0.190691627281973   0.233717624818290   0.110766248465752   1.0000000
B2   B   0.195049618372571   0.381456381238726   0.110765734621025   1.0000000
B2   B   0.193639348681829   0.524787799337072   0.110684514001080   1.0000000
B2   B   0.192170503171390   0.666410712686465   0.110725819273228   1.0000000
B2   B   0.191425500746000   0.807656998606640   0.110699942122641   1.0000000
B2   B   0.334386003507214   0.949483484424187   0.110794278095748   1.0000000
B2   B   0.332965103084893   0.088341468912152   0.110762570541080   1.0000000
B2   B   0.329854098468494   0.224400997673789   0.110776142445202   1.0000000
B2   B   0.331952956916638   0.363423109997275   0.110875959085470   1.0000000
B2   B   0.338531369348347   0.532784334310761   0.110709233598484   1.0000000
B2   B   0.336621391694542   0.670367407556009   0.110786175316751   1.0000000
B2   B   0.335404848454832   0.809731703495366   0.110782417267757   1.0000000
B2   B   0.478675764850546   0.952283013709184   0.110804709860043   1.0000000
B2   B   0.477585266445111   0.092585652151594   0.110815566638550   1.0000000
B2   B   0.475552653814536   0.231438346641410   0.110731990924937   1.0000000
B2   B   0.469608710065355   0.364900294102338   0.110922820627785   1.0000000
B2   B   0.482343843382416   0.670391096329851   0.110729229138807   1.0000000
B2   B   0.480042210494144   0.811504767339376   0.110850052095850   1.0000000
B2   B   0.622715100644772   0.955730578341861   0.110748642214506   1.0000000
B2   B   0.621678974646394   0.096939792242863   0.110708307222744   1.0000000
B2   B   0.620345984793586   0.238851620733497   0.110729307492786   1.0000000
B2   B   0.617173026539303   0.381504167723923   0.110691115606929   1.0000000
B2   B   0.614659355495422   0.534294165174521   0.110694192432249   1.0000000
B2   B   0.630159461770601   0.678948234720545   0.110643528888442   1.0000000
B2   B   0.624478370443215   0.815517304338408   0.110752531992636   1.0000000
B2   B   0.766363831451103   0.956566730378530   0.110687320236664   1.0000000
B2   B   0.765301744883075   0.098296912300751   0.110702925008469   1.0000000
B2   B   0.764121438945936   0.240283967203474   0.110717655846902   1.0000000
B2   B   0.761869521098245   0.382412859312750   0.110685981600359   1.0000000
B2   B   0.757413568222811   0.524886251863638   0.110742059070645   1.0000000
B2   B   0.766238692861013   0.670806601036620   0.110748104971162   1.0000000
B2   B   0.768392379911912   0.815515342427746   0.110688343712615   1.0000000
N2   N   0.954503051844382   0.905336907633693   0.110677088685317   1.0000000
N2   N   0.955316544083956   0.049358866134817   0.110705997259561   1.0000000
N2   N   0.955958420525492   0.192944210536108   0.110798135069649   1.0000000
N2   N   0.955338129750947   0.335451314369142   0.110706937548429   1.0000000
N2   N   0.952893019085775   0.477215235641355   0.110660647682340   1.0000000
N2   N   0.952574111283160   0.618788667313891   0.110797122414036   1.0000000
N2   N   0.953317326902393   0.761371313157643   0.110809724162240   1.0000000
N2   N   0.095895075820798   0.902634429575731   0.110650579041975   1.0000000
N2   N   0.095600371230718   0.045306529674917   0.110640465381439   1.0000000
N2   N   0.096954496952386   0.189700727264186   0.110778547294119   1.0000000
N2   N   0.099862951926251   0.335021087964718   0.110773375023124   1.0000000
N2   N   0.098270815580712   0.477282723213564   0.110644047633070   1.0000000
N2   N   0.096756770029702   0.618823687441317   0.110698328772125   1.0000000
N2   N   0.096140743179862   0.760486117947063   0.110723013982591   1.0000000
N2   N   0.239155119538293   0.902247923810489   0.110688021910523   1.0000000
N2   N   0.238102439918684   0.043213007374227   0.110667802702868   1.0000000
N2   N   0.236491543183298   0.184040477067833   0.110705014684065   1.0000000
N2   N   0.239933508835740   0.329737856572100   0.110799993521292   1.0000000
N2   N   0.243844394753496   0.477924307687786   0.110684710764466   1.0000000
N2   N   0.241381420868474   0.619884979808198   0.110717665738360   1.0000000
N2   N   0.240030241720846   0.761124867639333   0.110710406367904   1.0000000
N2   N   0.383315127781393   0.903972028899730   0.110784921291229   1.0000000
N2   N   0.382313599323975   0.043793757851019   0.110809019093349   1.0000000
N2   N   0.380690999730466   0.182249993536400   0.110741490440246   1.0000000
N2   N   0.377515418222286   0.317265662112023   0.110889540364805   1.0000000
N2   N   0.386856875475597   0.625249724836020   0.110724653157564   1.0000000
N2   N   0.384584216496047   0.764042297839906   0.110823852053381   1.0000000
N2   N   0.527387537316804   0.906123583863153   0.110801923986087   1.0000000
N2   N   0.526398018520456   0.047177815496347   0.110762835537321   1.0000000
N2   N   0.525166990125211   0.187722529619742   0.110761751170526   1.0000000
N2   N   0.522511928565396   0.327160914030455   0.110690394156335   1.0000000
N2   N   0.516279998987651   0.538887133017392   0.110528271518777   1.0000000
N2   N   0.537060935838282   0.628194067527050   0.110544445916828   1.0000000
N2   N   0.529208990626965   0.764869544124988   0.110800139413760   1.0000000
N2   N   0.671183827052989   0.909439729451588   0.110709225997907   1.0000000
N2   N   0.670054960995669   0.050484056957126   0.110664807393392   1.0000000
N2   N   0.668811392115041   0.192380773030274   0.110698476891972   1.0000000
N2   N   0.666301463986031   0.335206421736946   0.110675974901493   1.0000000
N2   N   0.657271835342037   0.478427909723672   0.110692334715920   1.0000000
N2   N   0.671361271604482   0.626280740012616   0.110686921652661   1.0000000
N2   N   0.674182295909346   0.770770932470246   0.110684916814779   1.0000000
N2   N   0.814311165236132   0.909256129930672   0.110651889939219   1.0000000
N2   N   0.813386685473747   0.051159266496163   0.110697504357841   1.0000000
N2   N   0.812536707295878   0.193321019771626   0.110706389079717   1.0000000
N2   N   0.810681448252030   0.335507486398238   0.110682351676716   1.0000000
N2   N   0.806677337983851   0.477497082371119   0.110696865215736   1.0000000
N2   N   0.809288052425637   0.619762117198252   0.110803966950660   1.0000000
N2   N   0.813090216091486   0.765110948186210   0.110711166199709   1.0000000


