data_1
_audit_creation_method   'vasp2cif'
_cell_length_a    17.52789999999977
_cell_length_b    17.52789999999977
_cell_length_c    15.0
_cell_angle_alpha    90.0
_cell_angle_beta    90.0
_cell_angle_gamma    119.99999999999916

_symmetry_space_group_name_H-M    'P 1'
loop_
_atom_site_label
_atom_site_type_symbol
_atom_site_fract_x
_atom_site_fract_y
_atom_site_fract_z
_atom_site_occupancy
B2   B   0.905845012970688   0.953288670040453   0.111019979153659   1.0000000
B2   B   0.904686535692694   0.095315485503302   0.111015274222259   1.0000000
B2   B   0.904304144121495   0.237866418906250   0.111040150592939   1.0000000
B2   B   0.904686535692694   0.380799743880390   0.111015274222259   1.0000000
B2   B   0.905845012970688   0.523986748178237   0.111019979153659   1.0000000
B2   B   0.905316781004417   0.666962880354832   0.111048486947866   1.0000000
B2   B   0.905316781004417   0.809784305897586   0.111048486947866   1.0000000
B2   B   0.047762305715632   0.952239715480371   0.111017934608088   1.0000000
B2   B   0.046713351155551   0.094157008225309   0.111019979153659   1.0000000
B2   B   0.046063092955402   0.237017765582971   0.111011005133710   1.0000000
B2   B   0.046063092955402   0.380475732619431   0.111011005133710   1.0000000
B2   B   0.046713351155551   0.523986748178237   0.111019979153659   1.0000000
B2   B   0.047762305715632   0.666954707039259   0.111017934608088   1.0000000
B2   B   0.047834429810005   0.809633273307005   0.111000520353453   1.0000000
B2   B   0.190368747888998   0.952167591385998   0.111000520353453   1.0000000
B2   B   0.190217715298417   0.094685240191579   0.111048486947866   1.0000000
B2   B   0.187026458521765   0.234713129023351   0.111030479078065   1.0000000
B2   B   0.186914083957853   0.379172244602426   0.111012211636656   1.0000000
B2   B   0.187026458521765   0.523743734746416   0.111030479078065   1.0000000
B2   B   0.190217715298417   0.666962880354832   0.111048486947866   1.0000000
B2   B   0.190368747888998   0.809633273307005   0.111000520353453   1.0000000
B2   B   0.333047314157739   0.952239715480371   0.111017934608088   1.0000000
B2   B   0.333039140842166   0.094685240191579   0.111048486947866   1.0000000
B2   B   0.333169982799396   0.237768349648794   0.111050026471769   1.0000000
B2   B   0.325773324187398   0.375409880066113   0.111042729298991   1.0000000
B2   B   0.325773324187398   0.521793849368284   0.111042729298991   1.0000000
B2   B   0.333169982799396   0.666832038397602   0.111050026471769   1.0000000
B2   B   0.333039140842166   0.809784305897586   0.111048486947866   1.0000000
B2   B   0.476015273018762   0.953288670040453   0.111019979153659   1.0000000
B2   B   0.476015273018762   0.094157008225309   0.111019979153659   1.0000000
B2   B   0.476258286450582   0.234713129023351   0.111030479078065   1.0000000
B2   B   0.478208171828714   0.375409880066113   0.111042729298991   1.0000000
B2   B   0.478208171828714   0.674228697009601   0.111042729298991   1.0000000
B2   B   0.476258286450582   0.812975562674239   0.111030479078065   1.0000000
B2   B   0.619526288576573   0.953938928240601   0.111011005133710   1.0000000
B2   B   0.619202277315613   0.095315485503302   0.111015274222259   1.0000000
B2   B   0.619526288576573   0.237017765582971   0.111011005133710   1.0000000
B2   B   0.620829776593578   0.379172244602426   0.111012211636656   1.0000000
B2   B   0.624592141129890   0.521793849368284   0.111042729298991   1.0000000
B2   B   0.624592141129890   0.674228697009601   0.111042729298991   1.0000000
B2   B   0.620829776593578   0.813087937238150   0.111012211636656   1.0000000
B2   B   0.762984255613032   0.953938928240601   0.111011005133710   1.0000000
B2   B   0.762135602289754   0.095697877074501   0.111040150592939   1.0000000
B2   B   0.762135602289754   0.237866418906250   0.111040150592939   1.0000000
B2   B   0.762984255613032   0.380475732619431   0.111011005133710   1.0000000
B2   B   0.765288892172653   0.523743734746416   0.111030479078065   1.0000000
B2   B   0.762233671547210   0.666832038397602   0.111050026471769   1.0000000
B2   B   0.765288892172653   0.812975562674239   0.111030479078065   1.0000000
N2   N   0.952921837135069   0.905093752489930   0.111010260799136   1.0000000
N2   N   0.952268465000110   0.047732936917896   0.110990553983537   1.0000000
N2   N   0.951367930910558   0.190004677891808   0.111008033476319   1.0000000
N2   N   0.951367930910558   0.332790235136748   0.111008033476319   1.0000000
N2   N   0.952268465000110   0.475962510200213   0.110990553983537   1.0000000
N2   N   0.952921837135069   0.619256778320135   0.111010260799136   1.0000000
N2   N   0.953026564311320   0.762227628993162   0.111020948179869   1.0000000
N2   N   0.095333846851168   0.904667555066830   0.110983995991420   1.0000000
N2   N   0.094907649428068   0.047079564782936   0.111010260799136   1.0000000
N2   N   0.092505941569892   0.188233434678133   0.111005160222937   1.0000000
N2   N   0.092157234405549   0.331792964039775   0.110993434311980   1.0000000
N2   N   0.092505941569892   0.475701200565761   0.111005160222937   1.0000000
N2   N   0.094907649428068   0.619256778320135   0.111010260799136   1.0000000
N2   N   0.095333846851168   0.762096697015343   0.110983995991420   1.0000000
N2   N   0.237904704902663   0.904667555066830   0.110983995991420   1.0000000
N2   N   0.237773772924844   0.046974837606686   0.111020948179869   1.0000000
N2   N   0.237071181723721   0.189146701388665   0.111035572183443   1.0000000
N2   N   0.231071526619085   0.327776376763043   0.110999498029964   1.0000000
N2   N   0.231071526619085   0.474723843530036   0.110999498029964   1.0000000
N2   N   0.237071181723721   0.619353174010052   0.111035572183443   1.0000000
N2   N   0.237773772924844   0.762227628993162   0.111020948179869   1.0000000
N2   N   0.380744623597863   0.905093752489930   0.111010260799136   1.0000000
N2   N   0.380744623597863   0.047079564782936   0.111010260799136   1.0000000
N2   N   0.380648227907947   0.189146701388665   0.111035572183443   1.0000000
N2   N   0.380371674274549   0.332170640306096   0.111019501764305   1.0000000
N2   N   0.358415958992338   0.464922326333166   0.111045669013357   1.0000000
N2   N   0.380371674274549   0.619629727643449   0.111019501764305   1.0000000
N2   N   0.380648227907947   0.762930220194284   0.111035572183443   1.0000000
N2   N   0.524300201351236   0.907495460348106   0.111005160222937   1.0000000
N2   N   0.524038891716784   0.047732936917896   0.110990553983537   1.0000000
N2   N   0.524300201351236   0.188233434678133   0.111005160222937   1.0000000
N2   N   0.525277558386960   0.327776376763043   0.110999498029964   1.0000000
N2   N   0.535079075583831   0.464922326333166   0.111045669013357   1.0000000
N2   N   0.535079075583831   0.641585442925660   0.111045669013357   1.0000000
N2   N   0.525277558386960   0.768929875298920   0.110999498029964   1.0000000
N2   N   0.668208437877222   0.907844167512450   0.110993434311980   1.0000000
N2   N   0.667211166780248   0.048633471007448   0.111008033476319   1.0000000
N2   N   0.667211166780248   0.190004677891808   0.111008033476319   1.0000000
N2   N   0.668208437877222   0.331792964039775   0.110993434311980   1.0000000
N2   N   0.672225025153954   0.474723843530036   0.110999498029964   1.0000000
N2   N   0.667830761610901   0.619629727643449   0.111019501764305   1.0000000
N2   N   0.672225025153954   0.768929875298920   0.110999498029964   1.0000000
N2   N   0.811767967239866   0.907495460348106   0.111005160222937   1.0000000
N2   N   0.809996724026191   0.048633471007448   0.111008033476319   1.0000000
N2   N   0.809525273905997   0.190476128012001   0.111029966482753   1.0000000
N2   N   0.809996724026191   0.332790235136748   0.111008033476319   1.0000000
N2   N   0.811767967239866   0.475701200565761   0.111005160222937   1.0000000
N2   N   0.810854700529334   0.619353174010052   0.111035572183443   1.0000000
N2   N   0.810854700529334   0.762930220194284   0.111035572183443   1.0000000
S2   S   0.476191212381998   0.523810808815000   0.111092144183806   1.0000000


