data_1
_audit_creation_method   'vasp2cif'
_cell_length_a    14.93631414619966
_cell_length_b    14.936314146199727
_cell_length_c    13.341276283792837
_cell_angle_alpha    90.0
_cell_angle_beta    90.0
_cell_angle_gamma    119.99999999999984

_symmetry_space_group_name_H-M    'P 1'
loop_
_atom_site_label
_atom_site_type_symbol
_atom_site_fract_x
_atom_site_fract_y
_atom_site_fract_z
_atom_site_occupancy
C2   C   0.389927919627587   0.444937036098637   0.375000000000000   1.0000000
O2   O   0.558534618523575   0.444649993080631   0.375000000000000   1.0000000
N2   N   0.111116737750116   0.055559963557445   0.124991207917083   1.0000000
N2   N   0.611078916904216   0.555509358458568   0.125533237946605   1.0000000
N2   N   0.444450703372714   0.055542805913908   0.125035918104830   1.0000000
N2   N   0.944452095890995   0.555552143103069   0.125042969575579   1.0000000
N2   N   0.777764312105987   0.055554699290891   0.125008376701795   1.0000000
N2   N   0.111121115411136   0.722219139027957   0.624987801180319   1.0000000
N2   N   0.444453085594408   0.722241260812321   0.625061962902425   1.0000000
N2   N   0.277791056123030   0.222225522934216   0.625040272999761   1.0000000
N2   N   0.777761100225356   0.722203215720933   0.624916786120717   1.0000000
N2   N   0.611107043302380   0.222204112363738   0.624915217454234   1.0000000
N2   N   0.944424772670196   0.222216466457190   0.625020875462137   1.0000000
N2   N   0.277788380761698   0.722223561876374   0.124975508524408   1.0000000
N2   N   0.111105853030468   0.222223995969332   0.124936607496472   1.0000000
N2   N   0.444460807420076   0.222203000623437   0.125058410335733   1.0000000
N2   N   0.611096347457035   0.722221705411345   0.125024504018593   1.0000000
N2   N   0.944448308038327   0.722217578444360   0.125050768110585   1.0000000
N2   N   0.777764271316407   0.222219264318461   0.125033967073031   1.0000000
N2   N   0.111119068992636   0.888890284511235   0.624985365796924   1.0000000
N2   N   0.444451317313973   0.888895155825395   0.625002027787119   1.0000000
N2   N   0.277745604719261   0.388875839145177   0.625530904643770   1.0000000
N2   N   0.611095019804646   0.388884105417230   0.624384417663970   1.0000000
N2   N   0.777765379683420   0.888881118211399   0.624974101685643   1.0000000
N2   N   0.944440335010576   0.388887533990189   0.624991791080968   1.0000000
N2   N   0.111100673661268   0.388883667131798   0.124920604167064   1.0000000
N2   N   0.277788632615629   0.888888332660840   0.125004677841103   1.0000000
N2   N   0.611109253492859   0.888903114082194   0.124990908043622   1.0000000
N2   N   0.444497619172925   0.388851077008234   0.124507359114364   1.0000000
N2   N   0.944442744692888   0.888885065917133   0.125018818286419   1.0000000
N2   N   0.777775051234532   0.388885855565742   0.125097908680877   1.0000000
N2   N   0.277783812273890   0.555559072405862   0.625083848675333   1.0000000
N2   N   0.111116737750116   0.055559963557445   0.625008792082917   1.0000000
N2   N   0.611078916904216   0.555509358458568   0.624466762053395   1.0000000
N2   N   0.444450703372714   0.055542805913908   0.624964081895170   1.0000000
N2   N   0.944452095890995   0.555552143103069   0.624957030424421   1.0000000
N2   N   0.111117779621215   0.555552048830448   0.124985336878242   1.0000000
N2   N   0.777764312105987   0.055554699290891   0.624991623298205   1.0000000
N2   N   0.277789231473412   0.055554958397258   0.125009633916150   1.0000000
N2   N   0.444468701512108   0.555605021778863   0.124474723542338   1.0000000
N2   N   0.777770082775741   0.555543675189869   0.125153178507854   1.0000000
N2   N   0.611106183613613   0.055552404975846   0.125016384688570   1.0000000
N2   N   0.444468701512108   0.555605021778863   0.625525276457662   1.0000000
N2   N   0.944436626356133   0.055551245136572   0.124998105939630   1.0000000
N2   N   0.277788380761698   0.722223561876374   0.625024491475592   1.0000000
N2   N   0.111105853030468   0.222223995969332   0.625063392503528   1.0000000
N2   N   0.444460807420076   0.222203000623437   0.624941589664268   1.0000000
N2   N   0.611096347457035   0.722221705411345   0.624975495981407   1.0000000
N2   N   0.944448308038327   0.722217578444360   0.624949231889415   1.0000000
N2   N   0.777764271316407   0.222219264318461   0.624966032926969   1.0000000
N2   N   0.111121115411136   0.722219139027957   0.125012198819681   1.0000000
N2   N   0.444453085594408   0.722241260812321   0.124938037097575   1.0000000
N2   N   0.277791056123030   0.222225522934216   0.124959727000239   1.0000000
N2   N   0.777761100225356   0.722203215720933   0.125083213879283   1.0000000
N2   N   0.611107043302380   0.222204112363738   0.125084782545766   1.0000000
N2   N   0.944424772670196   0.222216466457190   0.124979124537863   1.0000000
N2   N   0.111100673661268   0.388883667131798   0.625079395832936   1.0000000
N2   N   0.277788632615629   0.888888332660840   0.624995322158897   1.0000000
N2   N   0.611109253492859   0.888903114082194   0.625009091956378   1.0000000
N2   N   0.444497619172925   0.388851077008234   0.625492640885636   1.0000000
N2   N   0.944442744692888   0.888885065917133   0.624981181713581   1.0000000
N2   N   0.111119068992636   0.888890284511235   0.125014634203075   1.0000000
N2   N   0.777775051234532   0.388885855565742   0.624902091319123   1.0000000
N2   N   0.444451317313973   0.888895155825395   0.124997972212882   1.0000000
N2   N   0.277745604719261   0.388875839145177   0.124469095356230   1.0000000
N2   N   0.277783812273890   0.555559072405862   0.124916151324667   1.0000000
N2   N   0.611095019804646   0.388884105417230   0.125615582336030   1.0000000
N2   N   0.777765379683420   0.888881118211399   0.125025898314358   1.0000000
N2   N   0.944440335010576   0.388887533990189   0.125008208919032   1.0000000
N2   N   0.111117779621215   0.555552048830448   0.625014663121758   1.0000000
N2   N   0.277789231473412   0.055554958397258   0.624990366083850   1.0000000
N2   N   0.777770082775741   0.555543675189869   0.624846821492146   1.0000000
N2   N   0.611106183613613   0.055552404975846   0.624983615311429   1.0000000
N2   N   0.944436626356133   0.055551245136572   0.625001894060370   1.0000000
N2   N   0.054808803612163   0.110222440556157   0.375000000000000   1.0000000
N2   N   0.557762014417312   0.612680709230622   0.375000000000000   1.0000000
N2   N   0.388874958934346   0.110356619604400   0.375000000000000   1.0000000
N2   N   0.888799747991287   0.611107514952629   0.375000000000000   1.0000000
N2   N   0.722222271118454   0.111198479730578   0.375000000000000   1.0000000
N2   N   0.055549733985622   0.777775298139632   0.875000000000000   1.0000000
N2   N   0.388889145014000   0.777779251020400   0.875000000000000   1.0000000
N2   N   0.222217428786855   0.277769795411198   0.875000000000000   1.0000000
N2   N   0.722227382356859   0.777776995202748   0.875000000000000   1.0000000
N2   N   0.555555344926802   0.277781154867314   0.875000000000000   1.0000000
N2   N   0.888889295296674   0.277777186250789   0.875000000000000   1.0000000
N2   N   0.222012177669721   0.777838084548625   0.375000000000000   1.0000000
N2   N   0.054856170015232   0.277387448076101   0.375000000000000   1.0000000
N2   N   0.389617601334315   0.275913389994244   0.375000000000000   1.0000000
N2   N   0.556077835206675   0.778376856997268   0.375000000000000   1.0000000
N2   N   0.888809083104403   0.777581383523270   0.375000000000000   1.0000000
N2   N   0.722238954115624   0.277881128272671   0.375000000000000   1.0000000
N2   N   0.055550613278254   0.944441252882979   0.875000000000000   1.0000000
N2   N   0.388888773910689   0.944446631860908   0.875000000000000   1.0000000
N2   N   0.222218693234866   0.444443466068348   0.875000000000000   1.0000000
N2   N   0.555559865430809   0.444447883596909   0.875000000000000   1.0000000
N2   N   0.722225113875314   0.944442636771402   0.875000000000000   1.0000000
N2   N   0.888887737896630   0.444443443275733   0.875000000000000   1.0000000
N2   N   0.054704351622838   0.444488948802587   0.375000000000000   1.0000000
N2   N   0.222032773278086   0.944203460344958   0.375000000000000   1.0000000
N2   N   0.555696707843588   0.944770524777779   0.375000000000000   1.0000000
N2   N   0.888917850820854   0.944345947797109   0.375000000000000   1.0000000
N2   N   0.722275118812600   0.444673883591107   0.375000000000000   1.0000000
N2   N   0.222214832581648   0.611109298487018   0.875000000000000   1.0000000
N2   N   0.055551569814080   0.111103269688613   0.875000000000000   1.0000000
N2   N   0.555562095699156   0.611107409373195   0.875000000000000   1.0000000
N2   N   0.388886281543212   0.111109950710562   0.875000000000000   1.0000000
N2   N   0.888886776734227   0.611109292795222   0.875000000000000   1.0000000
N2   N   0.055285162524738   0.611171509552326   0.375000000000000   1.0000000
N2   N   0.722221951051453   0.111109126300121   0.875000000000000   1.0000000
N2   N   0.222048666788216   0.110594763793725   0.375000000000000   1.0000000
N2   N   0.389203016071889   0.613303238396248   0.375000000000000   1.0000000
N2   N   0.722040753220664   0.610521841878263   0.375000000000000   1.0000000
N2   N   0.555693467982769   0.111392080894664   0.375000000000000   1.0000000
N2   N   0.388888957493794   0.611108270566770   0.875000000000000   1.0000000
N2   N   0.888673804457432   0.110952851859717   0.375000000000000   1.0000000
N2   N   0.222216440099814   0.777776542287959   0.875000000000000   1.0000000
N2   N   0.055553401001181   0.277773680759665   0.875000000000000   1.0000000
N2   N   0.388884545524739   0.277774405892124   0.875000000000000   1.0000000
N2   N   0.555559054737001   0.777776227891434   0.875000000000000   1.0000000
N2   N   0.888891188604822   0.777779869163236   0.875000000000000   1.0000000
N2   N   0.722221983515502   0.277777744362755   0.875000000000000   1.0000000
N2   N   0.055373761060456   0.777683680069670   0.375000000000000   1.0000000
N2   N   0.388859584377212   0.778597459786946   0.375000000000000   1.0000000
N2   N   0.220316622074169   0.275769917750712   0.375000000000000   1.0000000
N2   N   0.723116778477539   0.778433130927400   0.375000000000000   1.0000000
N2   N   0.555840858836587   0.278430476032918   0.375000000000000   1.0000000
N2   N   0.888597449877197   0.277726540045833   0.375000000000000   1.0000000
N2   N   0.055550586470381   0.444442862963141   0.875000000000000   1.0000000
N2   N   0.222216244850940   0.944440846827730   0.875000000000000   1.0000000
N2   N   0.555556394353918   0.944446366958905   0.875000000000000   1.0000000
N2   N   0.388890199101020   0.444442408228040   0.875000000000000   1.0000000
N2   N   0.888892175605575   0.944443426074063   0.875000000000000   1.0000000
N2   N   0.055366697959407   0.944125500152575   0.375000000000000   1.0000000
N2   N   0.722220739440084   0.444444726084494   0.875000000000000   1.0000000
N2   N   0.388854624184993   0.944514112722158   0.375000000000000   1.0000000
N2   N   0.220341513365121   0.444242121034969   0.375000000000000   1.0000000
N2   N   0.221942832465524   0.611322604023752   0.375000000000000   1.0000000
N2   N   0.722417110088321   0.944654398126936   0.375000000000000   1.0000000
N2   N   0.888569234485582   0.444489409668007   0.375000000000000   1.0000000
N2   N   0.055547232834555   0.611106597494529   0.875000000000000   1.0000000
N2   N   0.222214038393092   0.111102239010815   0.875000000000000   1.0000000
N2   N   0.722223449416573   0.611110908664269   0.875000000000000   1.0000000
N2   N   0.555554712376068   0.111111296010673   0.875000000000000   1.0000000
N2   N   0.888890000274291   0.111106694822770   0.875000000000000   1.0000000
B2   B   0.110909116539821   0.055324521006360   0.375000000000000   1.0000000
B2   B   0.612457139857793   0.558641865525637   0.375000000000000   1.0000000
B2   B   0.444429117891083   0.055167786537897   0.375000000000000   1.0000000
B2   B   0.944603009958406   0.555604159018063   0.375000000000000   1.0000000
B2   B   0.777864074905992   0.055628831506391   0.375000000000000   1.0000000
B2   B   0.111121234621612   0.722219131171553   0.875000000000000   1.0000000
B2   B   0.444421797901423   0.722186103357659   0.875000000000000   1.0000000
B2   B   0.277750867530135   0.222233299197654   0.875000000000000   1.0000000
B2   B   0.777783885423731   0.722244967385122   0.875000000000000   1.0000000
B2   B   0.611103943821779   0.222209225007816   0.875000000000000   1.0000000
B2   B   0.944479351660948   0.222228850855275   0.875000000000000   1.0000000
B2   B   0.277645060198941   0.722239138428047   0.375000000000000   1.0000000
B2   B   0.110264229869389   0.221336044613373   0.375000000000000   1.0000000
B2   B   0.443805552709094   0.220672258703215   0.375000000000000   1.0000000
B2   B   0.612346857712967   0.723571393091097   0.375000000000000   1.0000000
B2   B   0.944628595178778   0.722422772529700   0.375000000000000   1.0000000
B2   B   0.777915311045277   0.222082176243663   0.375000000000000   1.0000000
B2   B   0.111112151159468   0.888899447567457   0.875000000000000   1.0000000
B2   B   0.444433388294265   0.888866510460931   0.875000000000000   1.0000000
B2   B   0.277778852061884   0.388895389327350   0.875000000000000   1.0000000
B2   B   0.611086992874943   0.388887668737709   0.875000000000000   1.0000000
B2   B   0.777786083643325   0.888898541761936   0.875000000000000   1.0000000
B2   B   0.944480043477435   0.388887450969435   0.875000000000000   1.0000000
B2   B   0.110431690574735   0.388915592781152   0.375000000000000   1.0000000
B2   B   0.277641668734038   0.888789544516805   0.375000000000000   1.0000000
B2   B   0.611304825322561   0.889163799311579   0.375000000000000   1.0000000
B2   B   0.944481417243612   0.888935324065148   0.375000000000000   1.0000000
B2   B   0.778186337380172   0.388592654240432   0.375000000000000   1.0000000
B2   B   0.277777486912423   0.555533753132132   0.875000000000000   1.0000000
B2   B   0.111113210998261   0.055571948239813   0.875000000000000   1.0000000
B2   B   0.611079577572463   0.555564853749743   0.875000000000000   1.0000000
B2   B   0.444425515538598   0.055542600580080   0.875000000000000   1.0000000
B2   B   0.944469062175594   0.555557970787023   0.875000000000000   1.0000000
B2   B   0.111042985917008   0.555588485097050   0.375000000000000   1.0000000
B2   B   0.777793969190380   0.055552757172445   0.875000000000000   1.0000000
B2   B   0.277439016523929   0.055185342107219   0.375000000000000   1.0000000
B2   B   0.444989998857568   0.557557352361525   0.375000000000000   1.0000000
B2   B   0.778578792271115   0.556030954967817   0.375000000000000   1.0000000
B2   B   0.611244016944877   0.055633246540062   0.375000000000000   1.0000000
B2   B   0.444397646409778   0.555520434449093   0.875000000000000   1.0000000
B2   B   0.944228428236044   0.055357833894584   0.375000000000000   1.0000000
B2   B   0.277775514627318   0.722200291330274   0.875000000000000   1.0000000
B2   B   0.111131685778324   0.222238950005905   0.875000000000000   1.0000000
B2   B   0.444398862183633   0.222218891662766   0.875000000000000   1.0000000
B2   B   0.611088936423525   0.722210163154007   0.875000000000000   1.0000000
B2   B   0.944459603454274   0.722240082241250   0.875000000000000   1.0000000
B2   B   0.777800629161023   0.222213924345517   0.875000000000000   1.0000000
B2   B   0.111053391937806   0.722239688797216   0.375000000000000   1.0000000
B2   B   0.444367290731416   0.723082609719694   0.375000000000000   1.0000000
B2   B   0.277246536275504   0.222004267816696   0.375000000000000   1.0000000
B2   B   0.778134710018451   0.722818023878602   0.375000000000000   1.0000000
B2   B   0.611476390993798   0.222114337521368   0.375000000000000   1.0000000
B2   B   0.944352501680818   0.222121216819288   0.375000000000000   1.0000000
B2   B   0.111143873413306   0.388892946978858   0.875000000000000   1.0000000
B2   B   0.277768827802169   0.888878705534548   0.875000000000000   1.0000000
B2   B   0.611103465994529   0.888872174633479   0.875000000000000   1.0000000
B2   B   0.444376427598326   0.388890708529072   0.875000000000000   1.0000000
B2   B   0.944457971996962   0.888911771710942   0.875000000000000   1.0000000
B2   B   0.111000954431789   0.888800053396709   0.375000000000000   1.0000000
B2   B   0.777796694712060   0.388884068843544   0.875000000000000   1.0000000
B2   B   0.444474985854784   0.889163489448320   0.375000000000000   1.0000000
B2   B   0.276070955239337   0.387868088691722   0.375000000000000   1.0000000
B2   B   0.277756048936489   0.555396463200220   0.375000000000000   1.0000000
B2   B   0.613273428382678   0.387725119551569   0.375000000000000   1.0000000
B2   B   0.778231297173791   0.889465405241928   0.375000000000000   1.0000000
B2   B   0.944229265596279   0.388811198167306   0.375000000000000   1.0000000
B2   B   0.111131573853172   0.555546359411170   0.875000000000000   1.0000000
B2   B   0.277755138473175   0.055556473637903   0.875000000000000   1.0000000
B2   B   0.777788181582032   0.555572093101235   0.875000000000000   1.0000000
B2   B   0.611111136153627   0.055540084729441   0.875000000000000   1.0000000
B2   B   0.944465809137075   0.055571429227735   0.875000000000000   1.0000000
B2   B   0.055609187601288   0.111201782087871   0.125029003751865   1.0000000
B2   B   0.555288461782790   0.611075845083671   0.124996542285830   1.0000000
B2   B   0.388846331620876   0.111057667258073   0.124983608558732   1.0000000
B2   B   0.888989522388437   0.611147890838064   0.124935962689015   1.0000000
B2   B   0.722217601424435   0.111079503313646   0.124991883277613   1.0000000
B2   B   0.055631027198681   0.777806023855704   0.625012429355941   1.0000000
B2   B   0.388888874910442   0.777726230463016   0.624977226731433   1.0000000
B2   B   0.222291596132701   0.277940130034147   0.624933485908162   1.0000000
B2   B   0.722144467031445   0.777791835771689   0.625023950275066   1.0000000
B2   B   0.555451009978437   0.277632348381540   0.625051551550659   1.0000000
B2   B   0.888943114558501   0.277773645478053   0.625004711699187   1.0000000
B2   B   0.222275549115079   0.777752113683159   0.125003298805455   1.0000000
B2   B   0.055627945977252   0.277825217079624   0.125041335461997   1.0000000
B2   B   0.388812996097933   0.277818520878858   0.124905719854395   1.0000000
B2   B   0.555469312269209   0.777754485100868   0.125007543914115   1.0000000
B2   B   0.888923421731953   0.777825021555127   0.124963251542038   1.0000000
B2   B   0.722236074659281   0.277718712274669   0.124946418133241   1.0000000
B2   B   0.055602601834934   0.944507288456628   0.625005976980277   1.0000000
B2   B   0.388880724907129   0.944391074403959   0.625002836484494   1.0000000
B2   B   0.222312140181299   0.444419378130388   0.624911303611935   1.0000000
B2   B   0.555303489798937   0.444364186836970   0.625534786456856   1.0000000
B2   B   0.722190734656031   0.944445446657932   0.625004154454041   1.0000000
B2   B   0.888985015972714   0.444442487996409   0.625046228824173   1.0000000
B2   B   0.055653852735051   0.444432869942977   0.125028245105691   1.0000000
B2   B   0.222249549733096   0.944455255888370   0.124998567113068   1.0000000
B2   B   0.555526847019914   0.944402533159820   0.124996857487447   1.0000000
B2   B   0.388775444765745   0.444463058047485   0.125893540044401   1.0000000
B2   B   0.888899992675244   0.944487739096201   0.124991143724342   1.0000000
B2   B   0.722276620450780   0.444437245030245   0.124936139901229   1.0000000
B2   B   0.222298083576430   0.611057276383721   0.624937698285968   1.0000000
B2   B   0.055609187601288   0.111201782087871   0.624970996248135   1.0000000
B2   B   0.555288461782790   0.611075845083671   0.625003457714170   1.0000000
B2   B   0.388846331620876   0.111057667258073   0.625016391441268   1.0000000
B2   B   0.888989522388437   0.611147890838064   0.625064037310984   1.0000000
B2   B   0.055659791218401   0.611106934412281   0.124995437338455   1.0000000
B2   B   0.722217601424435   0.111079503313646   0.625008116722387   1.0000000
B2   B   0.222249388606860   0.111199613350115   0.125035339140903   1.0000000
B2   B   0.388863498849436   0.611033657020653   0.125043522694897   1.0000000
B2   B   0.722194826734234   0.611143300578230   0.124960406158808   1.0000000
B2   B   0.555518494395531   0.111021701136624   0.124964425024241   1.0000000
B2   B   0.388863498849436   0.611033657020653   0.624956477305103   1.0000000
B2   B   0.888914151480370   0.111136631814053   0.125005069008636   1.0000000
B2   B   0.222275549115079   0.777752113683159   0.624996701194545   1.0000000
B2   B   0.055627945977252   0.277825217079624   0.624958664538003   1.0000000
B2   B   0.388812996097933   0.277818520878858   0.625094280145606   1.0000000
B2   B   0.555469312269209   0.777754485100868   0.624992456085885   1.0000000
B2   B   0.888923421731953   0.777825021555127   0.625036748457962   1.0000000
B2   B   0.722236074659281   0.277718712274669   0.625053581866759   1.0000000
B2   B   0.055631027198681   0.777806023855704   0.124987570644059   1.0000000
B2   B   0.388888874910442   0.777726230463016   0.125022773268567   1.0000000
B2   B   0.222291596132701   0.277940130034147   0.125066514091838   1.0000000
B2   B   0.722144467031445   0.777791835771689   0.124976049724935   1.0000000
B2   B   0.555451009978437   0.277632348381540   0.124948448449341   1.0000000
B2   B   0.888943114558501   0.277773645478053   0.124995288300813   1.0000000
B2   B   0.055653852735051   0.444432869942977   0.624971754894309   1.0000000
B2   B   0.222249549733096   0.944455255888370   0.625001432886932   1.0000000
B2   B   0.555526847019914   0.944402533159820   0.625003142512553   1.0000000
B2   B   0.388775444765745   0.444463058047485   0.624106459955600   1.0000000
B2   B   0.888899992675244   0.944487739096201   0.625008856275658   1.0000000
B2   B   0.055602601834934   0.944507288456628   0.124994023019722   1.0000000
B2   B   0.722276620450780   0.444437245030245   0.625063860098771   1.0000000
B2   B   0.388880724907129   0.944391074403959   0.124997163515506   1.0000000
B2   B   0.222312140181299   0.444419378130388   0.125088696388065   1.0000000
B2   B   0.222298083576430   0.611057276383721   0.125062301714033   1.0000000
B2   B   0.555303489798937   0.444364186836970   0.124465213543144   1.0000000
B2   B   0.722190734656031   0.944445446657932   0.124995845545959   1.0000000
B2   B   0.888985015972714   0.444442487996409   0.124953771175827   1.0000000
B2   B   0.055659791218401   0.611106934412281   0.625004562661545   1.0000000
B2   B   0.222249388606860   0.111199613350115   0.624964660859098   1.0000000
B2   B   0.722194826734234   0.611143300578230   0.625039593841192   1.0000000
B2   B   0.555518494395531   0.111021701136624   0.625035574975758   1.0000000
B2   B   0.888914151480370   0.111136631814053   0.624994930991364   1.0000000
B2   B   0.441301190471634   0.386046950320684   0.375000000000000   1.0000000


