data_1
_audit_creation_method   'vasp2cif'
_cell_length_a    14.93631414619966
_cell_length_b    14.936314146199727
_cell_length_c    13.341276283792837
_cell_angle_alpha    90.0
_cell_angle_beta    90.0
_cell_angle_gamma    119.99999999999984

_symmetry_space_group_name_H-M    'P 1'
loop_
_atom_site_label
_atom_site_type_symbol
_atom_site_fract_x
_atom_site_fract_y
_atom_site_fract_z
_atom_site_occupancy
As2   As   0.508205592569624   0.420769462951476   0.375000000000000   1.0000000
N2   N   0.111032752862478   0.055516585424049   0.124971091657825   1.0000000
N2   N   0.611103776527798   0.555626342365501   0.123501089358317   1.0000000
N2   N   0.444417784704297   0.055537477473969   0.124957590881578   1.0000000
N2   N   0.944363780362160   0.555509757159698   0.124975785319159   1.0000000
N2   N   0.777747987148037   0.055540660240688   0.124850445546977   1.0000000
N2   N   0.111044777670740   0.722189055502037   0.625085309494225   1.0000000
N2   N   0.444417784704297   0.722213640563661   0.625042409118417   1.0000000
N2   N   0.277653996464512   0.222157879302450   0.625408152819175   1.0000000
N2   N   0.777714493916158   0.722217904886580   0.625173313101719   1.0000000
N2   N   0.611079442346049   0.222170469224816   0.625283215442398   1.0000000
N2   N   0.944385051459947   0.222188041124634   0.625097950615975   1.0000000
N2   N   0.277736488718814   0.722198953642621   0.124932714033195   1.0000000
N2   N   0.111013494388820   0.222173413861074   0.124914633920924   1.0000000
N2   N   0.444409470624791   0.222196656922527   0.124514603673010   1.0000000
N2   N   0.611079442346049   0.722242306454562   0.124716784557605   1.0000000
N2   N   0.944363780362160   0.722187356535799   0.124975785319159   1.0000000
N2   N   0.777741076692135   0.222178321977619   0.124886632474197   1.0000000
N2   N   0.111047958867199   0.888862642419098   0.625074213771465   1.0000000
N2   N   0.444419517589376   0.888876425461354   0.625071968205399   1.0000000
N2   N   0.277653996464512   0.388829450495392   0.625408152819175   1.0000000
N2   N   0.611103776527798   0.388810767495625   0.626498910641685   1.0000000
N2   N   0.777741076692135   0.888896088047848   0.625113367525801   1.0000000
N2   N   0.944378931908291   0.388847804536689   0.625038283557839   1.0000000
N2   N   0.111032752862478   0.388849500771757   0.124971091657825   1.0000000
N2   N   0.277736488718814   0.888870868409522   0.124932714033195   1.0000000
N2   N   0.611089199409662   0.888892694737857   0.124899011225484   1.0000000
N2   N   0.444176323866473   0.388754828599900   0.122715641645693   1.0000000
N2   N   0.944378931908291   0.888864460704932   0.124961716442161   1.0000000
N2   N   0.777714493916158   0.388829922362905   0.124826686898279   1.0000000
N2   N   0.277731701209386   0.555526496594353   0.625054639446581   1.0000000
N2   N   0.111032752862478   0.055516585424049   0.625028908342176   1.0000000
N2   N   0.611103776527798   0.555626342365501   0.626498910641685   1.0000000
N2   N   0.444417784704297   0.055537477473969   0.625042409118417   1.0000000
N2   N   0.944363780362160   0.555509757159698   0.625024214680841   1.0000000
N2   N   0.111047958867199   0.555518649781433   0.124925786228534   1.0000000
N2   N   0.777747987148037   0.055540660240688   0.625149554453026   1.0000000
N2   N   0.277731701209386   0.055538537948368   0.124945360553419   1.0000000
N2   N   0.444409470624791   0.555546147035597   0.124514603673010   1.0000000
N2   N   0.777696614309156   0.555514973821244   0.124802887766342   1.0000000
N2   N   0.611089199409662   0.055529838005136   0.124899011225484   1.0000000
N2   N   0.444409470624791   0.555546147035597   0.625485396326988   1.0000000
N2   N   0.944385051459947   0.055530343668649   0.124902049384025   1.0000000
N2   N   0.277736488718815   0.722198953642621   0.625067285966804   1.0000000
N2   N   0.111013494388820   0.222173413861074   0.625085366079077   1.0000000
N2   N   0.444409470624791   0.222196656922527   0.625485396326988   1.0000000
N2   N   0.611079442346049   0.722242306454562   0.625283215442398   1.0000000
N2   N   0.944363780362160   0.722187356535799   0.625024214680841   1.0000000
N2   N   0.777741076692135   0.222178321977619   0.625113367525801   1.0000000
N2   N   0.111044777670740   0.722189055502037   0.124914690505776   1.0000000
N2   N   0.444417784704297   0.722213640563661   0.124957590881578   1.0000000
N2   N   0.277653996464512   0.222157879302450   0.124591847180823   1.0000000
N2   N   0.777714493916158   0.722217904886580   0.124826686898279   1.0000000
N2   N   0.611079442346049   0.222170469224816   0.124716784557605   1.0000000
N2   N   0.944385051459947   0.222188041124634   0.124902049384025   1.0000000
N2   N   0.111032752862478   0.388849500771757   0.625028908342176   1.0000000
N2   N   0.277736488718815   0.888870868409522   0.625067285966804   1.0000000
N2   N   0.611089199409662   0.888892694737857   0.625100988774516   1.0000000
N2   N   0.444176323866473   0.388754828599900   0.627284358354308   1.0000000
N2   N   0.944378931908291   0.888864460704932   0.625038283557839   1.0000000
N2   N   0.111047958867199   0.888862642419098   0.124925786228534   1.0000000
N2   N   0.777714493916158   0.388829922362905   0.625173313101719   1.0000000
N2   N   0.444419517589376   0.888876425461354   0.124928031794605   1.0000000
N2   N   0.277653996464512   0.388829450495392   0.124591847180823   1.0000000
N2   N   0.277731701209386   0.555526496594353   0.124945360553419   1.0000000
N2   N   0.611103776527798   0.388810767495625   0.123501089358317   1.0000000
N2   N   0.777741076692135   0.888896088047848   0.124886632474197   1.0000000
N2   N   0.944378931908291   0.388847804536689   0.124961716442161   1.0000000
N2   N   0.111047958867199   0.555518649781433   0.625074213771465   1.0000000
N2   N   0.277731701209386   0.055538537948368   0.625054639446581   1.0000000
N2   N   0.777696614309156   0.555514973821244   0.625197112233657   1.0000000
N2   N   0.611089199409662   0.055529838005136   0.625100988774516   1.0000000
N2   N   0.944385051459947   0.055530343668649   0.625097950615975   1.0000000
N2   N   0.059544760133296   0.113372572631863   0.375000000000000   1.0000000
N2   N   0.555745394808293   0.622178854388854   0.375000000000000   1.0000000
N2   N   0.388109716659329   0.105596771610639   0.375000000000000   1.0000000
N2   N   0.884963237134150   0.609148285233748   0.375000000000000   1.0000000
N2   N   0.724644018259409   0.111304404705729   0.375000000000000   1.0000000
N2   N   0.055587122421619   0.777792153216441   0.875000000000000   1.0000000
N2   N   0.388910429369922   0.777792395975244   0.875000000000000   1.0000000
N2   N   0.222256344875496   0.277794839104415   0.875000000000000   1.0000000
N2   N   0.722251390812468   0.777788125233952   0.875000000000000   1.0000000
N2   N   0.555579437113208   0.277787021851580   0.875000000000000   1.0000000
N2   N   0.888920606765759   0.277798250330921   0.875000000000000   1.0000000
N2   N   0.220378285368001   0.776855809350668   0.375000000000000   1.0000000
N2   N   0.059544760133296   0.279505520834768   0.375000000000000   1.0000000
N2   N   0.394673944454526   0.274556465218880   0.375000000000000   1.0000000
N2   N   0.556144685400068   0.782820831067277   0.375000000000000   1.0000000
N2   N   0.888202732532834   0.777932116943539   0.375000000000000   1.0000000
N2   N   0.723938900386850   0.275997932630891   0.375000000000000   1.0000000
N2   N   0.055583791401987   0.944454134230386   0.875000000000000   1.0000000
N2   N   0.388910429369922   0.944451366728017   0.875000000000000   1.0000000
N2   N   0.222249747652638   0.444464880674967   0.875000000000000   1.0000000
N2   N   0.555588372046611   0.444460852689970   0.875000000000000   1.0000000
N2   N   0.722246960398251   0.944455223268008   0.875000000000000   1.0000000
N2   N   0.888924871439141   0.444466819458081   0.875000000000000   1.0000000
N2   N   0.056543009307478   0.444924733866304   0.375000000000000   1.0000000
N2   N   0.220972890576441   0.942517136620860   0.375000000000000   1.0000000
N2   N   0.556249481520389   0.944791407426859   0.375000000000000   1.0000000
N2   N   0.394673944454525   0.453450812568981   0.375000000000000   1.0000000
N2   N   0.891589421754168   0.946618381599620   0.375000000000000   1.0000000
N2   N   0.718678481671242   0.440891035890063   0.375000000000000   1.0000000
N2   N   0.222244623256811   0.611127791053123   0.875000000000000   1.0000000
N2   N   0.055587685711512   0.111124152730026   0.875000000000000   1.0000000
N2   N   0.555579437113208   0.611125748594964   0.875000000000000   1.0000000
N2   N   0.388910993908061   0.111112716930544   0.875000000000000   1.0000000
N2   N   0.888931277317241   0.611132305325293   0.875000000000000   1.0000000
N2   N   0.053398549725421   0.610333807318720   0.375000000000000   1.0000000
N2   N   0.722246960398251   0.111125070463583   0.875000000000000   1.0000000
N2   N   0.225091922112406   0.111842733914496   0.375000000000000   1.0000000
N2   N   0.388109716659329   0.615846278382036   0.375000000000000   1.0000000
N2   N   0.718678481671242   0.611120779114512   0.375000000000000   1.0000000
N2   N   0.556144685400068   0.106657187666131   0.375000000000000   1.0000000
N2   N   0.388910993908061   0.611131610310861   0.875000000000000   1.0000000
N2   N   0.892368090568251   0.112850711950797   0.375000000000000   1.0000000
N2   N   0.222246148841389   0.777789741087364   0.875000000000000   1.0000000
N2   N   0.055587685711512   0.277796866314822   0.875000000000000   1.0000000
N2   N   0.388917640040491   0.277781480658513   0.875000000000000   1.0000000
N2   N   0.555577472565532   0.777790332116591   0.875000000000000   1.0000000
N2   N   0.888924871439141   0.777791385314395   0.875000000000000   1.0000000
N2   N   0.722251390812468   0.277796598911854   0.875000000000000   1.0000000
N2   N   0.053398549725421   0.776398075740037   0.375000000000000   1.0000000
N2   N   0.387954301697738   0.778994666550030   0.375000000000000   1.0000000
N2   N   0.228327452637491   0.280830392985413   0.375000000000000   1.0000000
N2   N   0.723938900386850   0.781274301089293   0.375000000000000   1.0000000
N2   N   0.555745394808293   0.266899873752776   0.375000000000000   1.0000000
N2   N   0.891589421754168   0.278304373487882   0.375000000000000   1.0000000
N2   N   0.055583791401987   0.444462990504931   0.875000000000000   1.0000000
N2   N   0.222244623256811   0.944450165537024   0.875000000000000   1.0000000
N2   N   0.555575765917999   0.944454549625664   0.875000000000000   1.0000000
N2   N   0.388917640040491   0.444469492715312   0.875000000000000   1.0000000
N2   N   0.888920606765759   0.944455689768175   0.875000000000000   1.0000000
N2   N   0.056543009307478   0.944951608774502   0.375000000000000   1.0000000
N2   N   0.722262671776762   0.444468356605142   0.875000000000000   1.0000000
N2   N   0.387954301697738   0.942292968481046   0.375000000000000   1.0000000
N2   N   0.225091922112406   0.446582521531246   0.375000000000000   1.0000000
N2   N   0.220972890576442   0.611789087288920   0.375000000000000   1.0000000
N2   N   0.724644018259409   0.946672946887018   0.375000000000000   1.0000000
N2   N   0.888202732532834   0.443603948922631   0.375000000000000   1.0000000
N2   N   0.055587122421619   0.611128302538514   0.875000000000000   1.0000000
N2   N   0.222249747652638   0.111118200311008   0.875000000000000   1.0000000
N2   N   0.722262671776762   0.611127648504957   0.875000000000000   1.0000000
N2   N   0.555577472565532   0.111120473782274   0.875000000000000   1.0000000
N2   N   0.888919435889909   0.111126384611625   0.875000000000000   1.0000000
B2   B   0.114264694993166   0.056936560015749   0.375000000000000   1.0000000
B2   B   0.606523693318346   0.564518747892625   0.375000000000000   1.0000000
B2   B   0.444680284233633   0.052430312489081   0.375000000000000   1.0000000
B2   B   0.941879245937832   0.554606682110200   0.375000000000000   1.0000000
B2   B   0.781106149907485   0.057219741620410   0.375000000000000   1.0000000
B2   B   0.111133259480796   0.722233296407062   0.875000000000000   1.0000000
B2   B   0.444463357203540   0.722196945846218   0.875000000000000   1.0000000
B2   B   0.277877474772955   0.222285886474030   0.875000000000000   1.0000000
B2   B   0.777767233970598   0.722173575155016   0.875000000000000   1.0000000
B2   B   0.611105887796013   0.222278566697472   0.875000000000000   1.0000000
B2   B   0.944496010732593   0.222255785188824   0.875000000000000   1.0000000
B2   B   0.276739135506684   0.722471732511372   0.375000000000000   1.0000000
B2   B   0.117186283278700   0.225259808306014   0.375000000000000   1.0000000
B2   B   0.444387307195975   0.215913109390485   0.375000000000000   1.0000000
B2   B   0.612764884706153   0.729744648990072   0.375000000000000   1.0000000
B2   B   0.941879245937832   0.720605897160964   0.375000000000000   1.0000000
B2   B   0.780497953764527   0.222253899313976   0.375000000000000   1.0000000
B2   B   0.111146272891074   0.888909738810891   0.875000000000000   1.0000000
B2   B   0.444458751860020   0.888896042596674   0.875000000000000   1.0000000
B2   B   0.277877474772955   0.388924921632251   0.875000000000000   1.0000000
B2   B   0.611093163319971   0.388929936017970   0.875000000000000   1.0000000
B2   B   0.777788974241469   0.888862304333869   0.875000000000000   1.0000000
B2   B   0.944471005814401   0.388920532688097   0.875000000000000   1.0000000
B2   B   0.114264694993166   0.390661468310744   0.375000000000000   1.0000000
B2   B   0.276739135506684   0.887600736328640   0.375000000000000   1.0000000
B2   B   0.613134907382215   0.891972622361265   0.375000000000000   1.0000000
B2   B   0.945396776823416   0.889485135250248   0.375000000000000   1.0000000
B2   B   0.776635730323981   0.387383370341807   0.375000000000000   1.0000000
B2   B   0.277830950421229   0.555557375785248   0.875000000000000   1.0000000
B2   B   0.111181220086467   0.055594567194619   0.875000000000000   1.0000000
B2   B   0.611093163319971   0.555496560635328   0.875000000000000   1.0000000
B2   B   0.444463357203540   0.055599744690660   0.875000000000000   1.0000000
B2   B   0.944453420035903   0.555571147795457   0.875000000000000   1.0000000
B2   B   0.110141584366026   0.555771449991859   0.375000000000000   1.0000000
B2   B   0.777798918197397   0.055566125765366   0.875000000000000   1.0000000
B2   B   0.277786895116222   0.053686946611446   0.375000000000000   1.0000000
B2   B   0.444387307195975   0.561807531138824   0.375000000000000   1.0000000
B2   B   0.772103380110472   0.552718356721901   0.375000000000000   1.0000000
B2   B   0.613134907382215   0.054495618354279   0.375000000000000   1.0000000
B2   B   0.444480784918944   0.555526223321020   0.875000000000000   1.0000000
B2   B   0.948426440791925   0.057859062433309   0.375000000000000   1.0000000
B2   B   0.277805081309540   0.722224516330318   0.875000000000000   1.0000000
B2   B   0.111205125459339   0.222269229396333   0.875000000000000   1.0000000
B2   B   0.444480784918944   0.222287894931259   0.875000000000000   1.0000000
B2   B   0.611105887796013   0.722160654431870   0.875000000000000   1.0000000
B2   B   0.944453420035903   0.722215605573785   0.875000000000000   1.0000000
B2   B   0.777788974241469   0.222260003240929   0.875000000000000   1.0000000
B2   B   0.109175751539802   0.721254542436565   0.375000000000000   1.0000000
B2   B   0.444680284233632   0.725583305077889   0.375000000000000   1.0000000
B2   B   0.285235248186643   0.225305024870465   0.375000000000000   1.0000000
B2   B   0.776635730323981   0.722585693315505   0.375000000000000   1.0000000
B2   B   0.612764884706153   0.216353569049411   0.375000000000000   1.0000000
B2   B   0.948426440791925   0.223900711691954   0.375000000000000   1.0000000
B2   B   0.111181220086467   0.388919986225176   0.875000000000000   1.0000000
B2   B   0.277805081309540   0.888913898312548   0.875000000000000   1.0000000
B2   B   0.611118124202279   0.888870672221657   0.875000000000000   1.0000000
B2   B   0.444514864507434   0.388924098920381   0.875000000000000   1.0000000
B2   B   0.944471005814401   0.888883806459634   0.875000000000000   1.0000000
B2   B   0.110141584366026   0.887703467707497   0.375000000000000   1.0000000
B2   B   0.777767233970598   0.388926992148911   0.875000000000000   1.0000000
B2   B   0.444690511357792   0.889011922345560   0.375000000000000   1.0000000
B2   B   0.285235248186643   0.393263556649507   0.375000000000000   1.0000000
B2   B   0.277786895116222   0.557433281838110   0.375000000000000   1.0000000
B2   B   0.606523693318346   0.375338278759052   0.375000000000000   1.0000000
B2   B   0.780497953764527   0.891577387783880   0.375000000000000   1.0000000
B2   B   0.945396776823416   0.389244974906500   0.375000000000000   1.0000000
B2   B   0.111146272891074   0.555569867413509   0.875000000000000   1.0000000
B2   B   0.277830950421229   0.055606907969317   0.875000000000000   1.0000000
B2   B   0.777757722051416   0.555545527692372   0.875000000000000   1.0000000
B2   B   0.611118124202279   0.055580785313953   0.875000000000000   1.0000000
B2   B   0.944496010732593   0.055573558877103   0.875000000000000   1.0000000
B2   B   0.055558421578252   0.111140216098972   0.125150209020287   1.0000000
B2   B   0.555499844795432   0.610910349092280   0.124775740878507   1.0000000
B2   B   0.388936658287842   0.111309244471665   0.125200555248211   1.0000000
B2   B   0.888635047582810   0.610984190458076   0.125175457763094   1.0000000
B2   B   0.722178155651114   0.111101281054779   0.125035377570720   1.0000000
B2   B   0.055444518512910   0.777744229157783   0.624908180938678   1.0000000
B2   B   0.388893357820058   0.777722104837794   0.624883743482319   1.0000000
B2   B   0.222285487022479   0.277809410177909   0.624867418007670   1.0000000
B2   B   0.722098183750754   0.777676848152716   0.624957742651877   1.0000000
B2   B   0.555499844795432   0.277922829036487   0.625224259121491   1.0000000
B2   B   0.888822354223169   0.277737577186188   0.624919988143645   1.0000000
B2   B   0.222187974935594   0.777760654134465   0.125062722194637   1.0000000
B2   B   0.055558421578252   0.277751538812614   0.125150209020287   1.0000000
B2   B   0.388917794604071   0.277952211727400   0.124828384437300   1.0000000
B2   B   0.555530011751746   0.777684286573142   0.125097715240244   1.0000000
B2   B   0.888717888384971   0.777693157287448   0.125130605758185   1.0000000
B2   B   0.722098183750754   0.277754668931369   0.125042257348127   1.0000000
B2   B   0.055508424980876   0.944468248320203   0.624859725338197   1.0000000
B2   B   0.388893357820058   0.944504586315604   0.624883743482319   1.0000000
B2   B   0.222264383475093   0.444353577189713   0.624781341047275   1.0000000
B2   B   0.555313246787444   0.444323290060387   0.624102775716596   1.0000000
B2   B   0.722178155651114   0.944410207929670   0.624964622429284   1.0000000
B2   B   0.888717888384971   0.444358064430858   0.624869394241818   1.0000000
B2   B   0.055508424980876   0.444373509994002   0.125140274661802   1.0000000
B2   B   0.222222342276232   0.944534003879492   0.125130463421841   1.0000000
B2   B   0.555540648880385   0.944436991106854   0.125071939839883   1.0000000
B2   B   0.388917794604071   0.444298916210007   0.124828384437300   1.0000000
B2   B   0.888822354223169   0.944418110370315   0.125080011856355   1.0000000
B2   B   0.721884530533728   0.444302528888702   0.124793789645159   1.0000000
B2   B   0.222222342276232   0.611021671730075   0.624869536578160   1.0000000
B2   B   0.055558421578252   0.111140216098972   0.624849790979714   1.0000000
B2   B   0.555499844795432   0.610910349092280   0.625224259121491   1.0000000
B2   B   0.388936658287842   0.111309244471665   0.624799444751790   1.0000000
B2   B   0.888635047582810   0.610984190458076   0.624824542236907   1.0000000
B2   B   0.055444518512910   0.611033622688459   0.125091819061320   1.0000000
B2   B   0.722178155651114   0.111101281054779   0.624964622429284   1.0000000
B2   B   0.222264383475093   0.111244139618716   0.125218658952725   1.0000000
B2   B   0.388936658287842   0.610960747149522   0.125200555248211   1.0000000
B2   B   0.721884530533728   0.610915334978362   0.124793789645159   1.0000000
B2   B   0.555530011751746   0.111179058511942   0.125097715240244   1.0000000
B2   B   0.388936658287842   0.610960747149523   0.624799444751790   1.0000000
B2   B   0.888859084500606   0.111096208916974   0.125035216089808   1.0000000
B2   B   0.222187974935594   0.777760654134465   0.624937277805361   1.0000000
B2   B   0.055558421578252   0.277751538812614   0.624849790979714   1.0000000
B2   B   0.388917794604071   0.277952211727400   0.625171615562697   1.0000000
B2   B   0.555530011751746   0.777684286573142   0.624902284759757   1.0000000
B2   B   0.888717888384971   0.777693157287448   0.624869394241818   1.0000000
B2   B   0.722098183750754   0.277754668931369   0.624957742651877   1.0000000
B2   B   0.055444518512910   0.777744229157783   0.125091819061320   1.0000000
B2   B   0.388893357820058   0.777722104837794   0.125116256517680   1.0000000
B2   B   0.222285487022479   0.277809410177909   0.125132581992330   1.0000000
B2   B   0.722098183750754   0.777676848152716   0.125042257348127   1.0000000
B2   B   0.555499844795432   0.277922829036487   0.124775740878507   1.0000000
B2   B   0.888822354223169   0.277737577186188   0.125080011856355   1.0000000
B2   B   0.055508424980876   0.444373509994002   0.624859725338197   1.0000000
B2   B   0.222222342276232   0.944534003879492   0.624869536578160   1.0000000
B2   B   0.555540648880385   0.944436991106854   0.624928060160118   1.0000000
B2   B   0.388917794604071   0.444298916210007   0.625171615562697   1.0000000
B2   B   0.888822354223169   0.944418110370315   0.624919988143645   1.0000000
B2   B   0.055508424980876   0.944468248320203   0.125140274661802   1.0000000
B2   B   0.721884530533728   0.444302528888702   0.625206210354843   1.0000000
B2   B   0.388893357820058   0.944504586315604   0.125116256517680   1.0000000
B2   B   0.222264383475093   0.444353577189713   0.125218658952725   1.0000000
B2   B   0.222222342276232   0.611021671730075   0.125130463421841   1.0000000
B2   B   0.555313246787444   0.444323290060387   0.125897224283404   1.0000000
B2   B   0.722178155651114   0.944410207929670   0.125035377570720   1.0000000
B2   B   0.888717888384971   0.444358064430858   0.125130605758185   1.0000000
B2   B   0.055444518512910   0.611033622688459   0.624908180938678   1.0000000
B2   B   0.222264383475093   0.111244139618716   0.624781341047275   1.0000000
B2   B   0.721884530533728   0.610915334978362   0.625206210354843   1.0000000
B2   B   0.555530011751746   0.111179058511942   0.624902284759757   1.0000000
B2   B   0.888859084500606   0.111096208916974   0.624964783910192   1.0000000


