data_1
_audit_creation_method   'vasp2cif'
_cell_length_a    14.93631414619966
_cell_length_b    14.936314146199727
_cell_length_c    13.341276283792837
_cell_angle_alpha    90.0
_cell_angle_beta    90.0
_cell_angle_gamma    119.99999999999984

_symmetry_space_group_name_H-M    'P 1'
loop_
_atom_site_label
_atom_site_type_symbol
_atom_site_fract_x
_atom_site_fract_y
_atom_site_fract_z
_atom_site_occupancy
C2   C   0.611130897995719   0.390536447759923   0.375000000000000   1.0000000
C2   C   0.446072216430883   0.390536447759923   0.375000000000000   1.0000000
C2   C   0.553378944760716   0.440091222854766   0.375000000000000   1.0000000
N2   N   0.111105347877862   0.055557082324131   0.124933901067780   1.0000000
N2   N   0.611089226303356   0.555511785940058   0.124750807798748   1.0000000
N2   N   0.444450782407445   0.055560737263532   0.124987470500585   1.0000000
N2   N   0.944439485439511   0.555505137035348   0.124862428614922   1.0000000
N2   N   0.777788529519677   0.055569669833353   0.124877512140906   1.0000000
N2   N   0.111086655539843   0.722178884578942   0.625134548261757   1.0000000
N2   N   0.444428260882422   0.722181892738530   0.624955883764882   1.0000000
N2   N   0.277778856652788   0.222244161585134   0.624934121569002   1.0000000
N2   N   0.777765313149965   0.722211422683112   0.624416705038122   1.0000000
N2   N   0.611131971599024   0.222244161585134   0.624934121569002   1.0000000
N2   N   0.944443993533930   0.222221320401208   0.625116602070051   1.0000000
N2   N   0.277758895705773   0.722178884578942   0.124865451738238   1.0000000
N2   N   0.111096280726181   0.222220471816506   0.124939289752020   1.0000000
N2   N   0.444463240929001   0.222259815191334   0.125096170118324   1.0000000
N2   N   0.611112776199827   0.722211422683112   0.125583294961871   1.0000000
N2   N   0.944420298522760   0.722181892738530   0.125044116235117   1.0000000
N2   N   0.777790857757001   0.222220471816506   0.124939289752020   1.0000000
N2   N   0.111089611934402   0.888867127741710   0.625088660505414   1.0000000
N2   N   0.444444182473982   0.888867127741710   0.625088660505414   1.0000000
N2   N   0.277740735939059   0.388869269832558   0.624992487023581   1.0000000
N2   N   0.611136603396084   0.388887142897987   0.625127835892943   1.0000000
N2   N   0.777784009805871   0.888901352945080   0.624953599069747   1.0000000
N2   N   0.944447446175849   0.388862916971000   0.625115476687011   1.0000000
N2   N   0.111082137461825   0.388862916971000   0.124884523312998   1.0000000
N2   N   0.277766241638762   0.888865816610853   0.124918568067677   1.0000000
N2   N   0.611122875364546   0.888880174960931   0.124982740036437   1.0000000
N2   N   0.444417206168577   0.388887142897987   0.124872164107062   1.0000000
N2   N   0.944423966263056   0.888880174960931   0.124982740036437   1.0000000
N2   N   0.777795200560176   0.388869269832558   0.125007512976415   1.0000000
N2   N   0.277732318262517   0.555505137035348   0.625137571385087   1.0000000
N2   N   0.111105347877862   0.055557082324131   0.625066098932217   1.0000000
N2   N   0.611089226303356   0.555511785940058   0.625249192201248   1.0000000
N2   N   0.444450782407445   0.055560737263532   0.625012529499427   1.0000000
N2   N   0.944439485439511   0.555505137035348   0.625137571385087   1.0000000
N2   N   0.111088596195484   0.555510525724288   0.124838159773008   1.0000000
N2   N   0.777788529519677   0.055569669833353   0.625122487859096   1.0000000
N2   N   0.277776621522751   0.055560737263532   0.124987470500585   1.0000000
N2   N   0.444370955053654   0.555490716738652   0.125100674437148   1.0000000
N2   N   0.777786428351657   0.555490716738652   0.125100674437148   1.0000000
N2   N   0.611118401112935   0.055557082324131   0.124933901067780   1.0000000
N2   N   0.444370955053654   0.555490716738652   0.624899325562861   1.0000000
N2   N   0.944447806980343   0.055569669833353   0.124877512140906   1.0000000
N2   N   0.277758895705773   0.722178884578942   0.625134548261757   1.0000000
N2   N   0.111096280726181   0.222220471816506   0.625060710247974   1.0000000
N2   N   0.444463240929001   0.222259815191334   0.624903829881678   1.0000000
N2   N   0.611112776199827   0.722211422683112   0.624416705038122   1.0000000
N2   N   0.944420298522760   0.722181892738530   0.624955883764882   1.0000000
N2   N   0.777790857757001   0.222220471816506   0.625060710247974   1.0000000
N2   N   0.111086655539843   0.722178884578942   0.124865451738238   1.0000000
N2   N   0.444428260882422   0.722181892738530   0.125044116235117   1.0000000
N2   N   0.277778856652788   0.222244161585134   0.125065878431000   1.0000000
N2   N   0.777765313149965   0.722211422683112   0.125583294961871   1.0000000
N2   N   0.611131971599024   0.222244161585134   0.125065878431000   1.0000000
N2   N   0.944443993533930   0.222221320401208   0.124883397929939   1.0000000
N2   N   0.111082137461825   0.388862916971000   0.625115476687011   1.0000000
N2   N   0.277766241638762   0.888865816610853   0.625081431932327   1.0000000
N2   N   0.611122875364546   0.888880174960931   0.625017259963563   1.0000000
N2   N   0.444417206168577   0.388887142897987   0.625127835892943   1.0000000
N2   N   0.944423966263056   0.888880174960931   0.625017259963563   1.0000000
N2   N   0.111089611934402   0.888867127741710   0.124911339494584   1.0000000
N2   N   0.777795200560176   0.388869269832558   0.624992487023581   1.0000000
N2   N   0.444444182473982   0.888867127741710   0.124911339494584   1.0000000
N2   N   0.277740735939059   0.388869269832558   0.125007512976415   1.0000000
N2   N   0.277732318262517   0.555505137035348   0.124862428614922   1.0000000
N2   N   0.611136603396084   0.388887142897987   0.124872164107062   1.0000000
N2   N   0.777784009805871   0.888901352945080   0.125046400930252   1.0000000
N2   N   0.944447446175849   0.388862916971000   0.124884523312998   1.0000000
N2   N   0.111088596195484   0.555510525724288   0.625161840226990   1.0000000
N2   N   0.277776621522751   0.055560737263532   0.625012529499427   1.0000000
N2   N   0.777786428351657   0.555490716738652   0.624899325562861   1.0000000
N2   N   0.611118401112935   0.055557082324131   0.625066098932217   1.0000000
N2   N   0.944447806980343   0.055569669833353   0.625122487859096   1.0000000
N2   N   0.055457835230426   0.110804547461702   0.375000000000000   1.0000000
N2   N   0.551614294186560   0.610313813995118   0.375000000000000   1.0000000
N2   N   0.390731235521863   0.114795804377056   0.375000000000000   1.0000000
N2   N   0.890284086898916   0.610250104341852   0.375000000000000   1.0000000
N2   N   0.722013378897936   0.110804547461702   0.375000000000000   1.0000000
N2   N   0.055568058830832   0.777795075726004   0.875000000000000   1.0000000
N2   N   0.388893683561839   0.777795075726004   0.875000000000000   1.0000000
N2   N   0.222230743854955   0.277782013855480   0.875000000000000   1.0000000
N2   N   0.722226338909820   0.777786011152958   0.875000000000000   1.0000000
N2   N   0.555551696311989   0.277776828647137   0.875000000000000   1.0000000
N2   N   0.888888702055048   0.277783318227118   0.875000000000000   1.0000000
N2   N   0.222684195826114   0.778701724985565   0.375000000000000   1.0000000
N2   N   0.055297332732890   0.277354472337625   0.375000000000000   1.0000000
N2   N   0.390721767239877   0.282406757599080   0.375000000000000   1.0000000
N2   N   0.554746274401136   0.778105452938678   0.375000000000000   1.0000000
N2   N   0.890025845204213   0.778105452938678   0.375000000000000   1.0000000
N2   N   0.722312752069317   0.277324355091250   0.375000000000000   1.0000000
N2   N   0.055564545474487   0.944454113918400   0.875000000000000   1.0000000
N2   N   0.388891996021238   0.944454814056221   0.875000000000000   1.0000000
N2   N   0.222231280646841   0.444456522585209   0.875000000000000   1.0000000
N2   N   0.555557289989490   0.444447913312292   0.875000000000000   1.0000000
N2   N   0.722221870591810   0.944449182300104   0.875000000000000   1.0000000
N2   N   0.888891908605030   0.444456522585209   0.875000000000000   1.0000000
N2   N   0.055353652115715   0.444040637564760   0.375000000000000   1.0000000
N2   N   0.223478012793705   0.946194468403591   0.375000000000000   1.0000000
N2   N   0.555329585845271   0.945270456335063   0.375000000000000   1.0000000
N2   N   0.390350493281331   0.440997160846161   0.375000000000000   1.0000000
N2   N   0.888695062887113   0.943805300076665   0.375000000000000   1.0000000
N2   N   0.717313334231508   0.440997160846161   0.375000000000000   1.0000000
N2   N   0.222228833058776   0.611126235059788   0.875000000000000   1.0000000
N2   N   0.055560309939748   0.111111921969640   0.875000000000000   1.0000000
N2   N   0.555561053060958   0.611123928573667   0.875000000000000   1.0000000
N2   N   0.388888399251874   0.111110131837094   0.875000000000000   1.0000000
N2   N   0.888896367270747   0.611125931272072   0.875000000000000   1.0000000
N2   N   0.056078117824127   0.611148227814004   0.375000000000000   1.0000000
N2   N   0.722218278696548   0.111111921969640   0.875000000000000   1.0000000
N2   N   0.223705345103148   0.112875771683796   0.375000000000000   1.0000000
N2   N   0.386632684109594   0.610250104341852   0.375000000000000   1.0000000
N2   N   0.725366186475220   0.610313813995118   0.375000000000000   1.0000000
N2   N   0.555837093247322   0.112875771683796   0.375000000000000   1.0000000
N2   N   0.388896230667994   0.611125931272072   0.875000000000000   1.0000000
N2   N   0.888606339664161   0.110546012661663   0.375000000000000   1.0000000
N2   N   0.222230464532337   0.777794262398009   0.875000000000000   1.0000000
N2   N   0.055561282838726   0.277783318227118   0.875000000000000   1.0000000
N2   N   0.388891799001809   0.277776828647137   0.875000000000000   1.0000000
N2   N   0.555557656208766   0.777789840971719   0.875000000000000   1.0000000
N2   N   0.888898851429618   0.777789840971719   0.875000000000000   1.0000000
N2   N   0.722217936667193   0.277782013855480   0.875000000000000   1.0000000
N2   N   0.056521169991671   0.778416719496361   0.375000000000000   1.0000000
N2   N   0.388562216171367   0.778416719496361   0.375000000000000   1.0000000
N2   N   0.221678269688607   0.277324355091250   0.375000000000000   1.0000000
N2   N   0.721571068854903   0.776475471043116   0.375000000000000   1.0000000
N2   N   0.558351657025861   0.282406757599080   0.375000000000000   1.0000000
N2   N   0.888723806271409   0.277354472337625   0.375000000000000   1.0000000
N2   N   0.055561654028962   0.444456641391250   0.875000000000000   1.0000000
N2   N   0.222229484701663   0.944454814056221   0.875000000000000   1.0000000
N2   N   0.555556235110571   0.944454113918400   0.875000000000000   1.0000000
N2   N   0.388898502470824   0.444453235396027   0.875000000000000   1.0000000
N2   N   0.888893978374966   0.944449182300104   0.875000000000000   1.0000000
N2   N   0.056607537156473   0.945270456335063   0.375000000000000   1.0000000
N2   N   0.722221399591870   0.444453235396027   0.875000000000000   1.0000000
N2   N   0.389383122276547   0.946194468403591   0.375000000000000   1.0000000
N2   N   0.222817272818758   0.443750402550667   0.375000000000000   1.0000000
N2   N   0.221736776656529   0.611148227814004   0.375000000000000   1.0000000
N2   N   0.721776903856207   0.943805300076665   0.375000000000000   1.0000000
N2   N   0.887599796398575   0.443750402550667   0.375000000000000   1.0000000
N2   N   0.055564068667678   0.611126235059788   0.875000000000000   1.0000000
N2   N   0.222226444655885   0.111112214528209   0.875000000000000   1.0000000
N2   N   0.722229542179356   0.611123928573667   0.875000000000000   1.0000000
N2   N   0.555552436538992   0.111112214528209   0.875000000000000   1.0000000
N2   N   0.888889414549671   0.111112162432698   0.875000000000000   1.0000000
B2   B   0.111575998373673   0.055883081181923   0.375000000000000   1.0000000
B2   B   0.444895471827160   0.057278722442124   0.375000000000000   1.0000000
B2   B   0.944740659966144   0.555748211068772   0.375000000000000   1.0000000
B2   B   0.777148751927358   0.054127362550161   0.375000000000000   1.0000000
B2   B   0.111093928276217   0.722237885762837   0.875000000000000   1.0000000
B2   B   0.444502038793008   0.722221075942159   0.875000000000000   1.0000000
B2   B   0.277810841361947   0.222253401759387   0.875000000000000   1.0000000
B2   B   0.777722885827389   0.722180030804327   0.875000000000000   1.0000000
B2   B   0.611109227064116   0.222253401759387   0.875000000000000   1.0000000
B2   B   0.944436329839557   0.222205993012444   0.875000000000000   1.0000000
B2   B   0.277876587973061   0.722606824877439   0.375000000000000   1.0000000
B2   B   0.110246402912155   0.221480419267684   0.375000000000000   1.0000000
B2   B   0.446431012566069   0.226195358465471   0.375000000000000   1.0000000
B2   B   0.608354029868852   0.716968727547430   0.375000000000000   1.0000000
B2   B   0.944180416686282   0.721742408391538   0.375000000000000   1.0000000
B2   B   0.777900683022198   0.221480419267684   0.375000000000000   1.0000000
B2   B   0.111069889847197   0.888861603466437   0.875000000000000   1.0000000
B2   B   0.444458380285910   0.888861603466437   0.875000000000000   1.0000000
B2   B   0.277869514924270   0.388961863031607   0.875000000000000   1.0000000
B2   B   0.611125479174276   0.388995933006191   0.875000000000000   1.0000000
B2   B   0.777727540166863   0.888788413667037   0.875000000000000   1.0000000
B2   B   0.944442914147553   0.388929795385044   0.875000000000000   1.0000000
B2   B   0.111467265313850   0.388660869455375   0.375000000000000   1.0000000
B2   B   0.278255347593810   0.889844028520949   0.375000000000000   1.0000000
B2   B   0.610293414484802   0.887974530904536   0.375000000000000   1.0000000
B2   B   0.944347783086417   0.887974530904536   0.375000000000000   1.0000000
B2   B   0.776105115420341   0.387978388682674   0.375000000000000   1.0000000
B2   B   0.277864062603064   0.555613021939596   0.875000000000000   1.0000000
B2   B   0.111082120343262   0.055517389798441   0.875000000000000   1.0000000
B2   B   0.611149202756955   0.555631738847267   0.875000000000000   1.0000000
B2   B   0.444443788784641   0.055545696650064   0.875000000000000   1.0000000
B2   B   0.944415626003204   0.555613021939596   0.875000000000000   1.0000000
B2   B   0.111132695842440   0.555598725018210   0.375000000000000   1.0000000
B2   B   0.777747219534433   0.055483979711905   0.875000000000000   1.0000000
B2   B   0.279049917281631   0.057278722442124   0.375000000000000   1.0000000
B2   B   0.448057029705351   0.558296576877265   0.375000000000000   1.0000000
B2   B   0.776906213838573   0.558296576877265   0.375000000000000   1.0000000
B2   B   0.610973749474926   0.055883081181923   0.375000000000000   1.0000000
B2   B   0.444561440223252   0.555633033734116   0.875000000000000   1.0000000
B2   B   0.943645277289465   0.054127362550161   0.375000000000000   1.0000000
B2   B   0.277810624153288   0.722237885762837   0.875000000000000   1.0000000
B2   B   0.111123065508554   0.222219963462809   0.875000000000000   1.0000000
B2   B   0.444467095045691   0.222267523424725   0.875000000000000   1.0000000
B2   B   0.611123811643608   0.722180030804327   0.875000000000000   1.0000000
B2   B   0.944385703815810   0.722221075942159   0.875000000000000   1.0000000
B2   B   0.777763564620919   0.222219963462809   0.875000000000000   1.0000000
B2   B   0.111396903571060   0.722606824877439   0.375000000000000   1.0000000
B2   B   0.444228658371909   0.721742408391538   0.375000000000000   1.0000000
B2   B   0.277773941950178   0.223545511969803   0.375000000000000   1.0000000
B2   B   0.775281364345244   0.716968727547430   0.375000000000000   1.0000000
B2   B   0.612438236686284   0.223545511969803   0.375000000000000   1.0000000
B2   B   0.944063274396991   0.221459882127310   0.375000000000000   1.0000000
B2   B   0.111153547904159   0.388929795385044   0.875000000000000   1.0000000
B2   B   0.277772911362013   0.888879156057355   0.875000000000000   1.0000000
B2   B   0.611105409030915   0.888817385219631   0.875000000000000   1.0000000
B2   B   0.444537120498582   0.388995933006191   0.875000000000000   1.0000000
B2   B   0.944378642855397   0.888817385219631   0.875000000000000   1.0000000
B2   B   0.111706845198646   0.889410733027271   0.375000000000000   1.0000000
B2   B   0.777759014774015   0.388961863031607   0.875000000000000   1.0000000
B2   B   0.444370554495287   0.889410733027271   0.375000000000000   1.0000000
B2   B   0.278539939929014   0.387978388682674   0.375000000000000   1.0000000
B2   B   0.277674217769292   0.555748211068772   0.375000000000000   1.0000000
B2   B   0.776243157267870   0.885819647869107   0.375000000000000   1.0000000
B2   B   0.943860270808188   0.388660869455375   0.375000000000000   1.0000000
B2   B   0.111133587342814   0.555600508018952   0.875000000000000   1.0000000
B2   B   0.277768574532087   0.055545696650064   0.875000000000000   1.0000000
B2   B   0.777738260177526   0.555633033734116   0.875000000000000   1.0000000
B2   B   0.611101936121849   0.055517389798441   0.875000000000000   1.0000000
B2   B   0.944403426844135   0.055483979711905   0.875000000000000   1.0000000
B2   B   0.055459729189512   0.111048674873299   0.125031749543477   1.0000000
B2   B   0.555751039384898   0.611033924027698   0.127377132825444   1.0000000
B2   B   0.388910514205542   0.111154361744431   0.124996400380646   1.0000000
B2   B   0.888639989150162   0.611051307312459   0.125579488166821   1.0000000
B2   B   0.722255612350444   0.111048674873299   0.125031749543477   1.0000000
B2   B   0.055308492675344   0.777612561297631   0.624800203943427   1.0000000
B2   B   0.388970735288950   0.777612561297631   0.624800203943427   1.0000000
B2   B   0.222243341299720   0.277897463060203   0.625012670021848   1.0000000
B2   B   0.722081325607992   0.777495984549324   0.623603347100148   1.0000000
B2   B   0.555723537380182   0.278098975152528   0.625151852901311   1.0000000
B2   B   0.888920732910453   0.277801481778933   0.625000527131235   1.0000000
B2   B   0.222155313184846   0.777643959703033   0.125055887276630   1.0000000
B2   B   0.055547415535137   0.277801481778933   0.124999472868765   1.0000000
B2   B   0.389042104439007   0.278098975152528   0.124848147098692   1.0000000
B2   B   0.555671292621731   0.777534220183025   0.125869081761855   1.0000000
B2   B   0.888529594227948   0.777534220183025   0.125869081761855   1.0000000
B2   B   0.722320788427153   0.277897463060203   0.124987329978149   1.0000000
B2   B   0.055333423829157   0.944277543314315   0.624861419849110   1.0000000
B2   B   0.388890900038985   0.944327699242314   0.624953443685335   1.0000000
B2   B   0.222293187188799   0.444524842646086   0.624915114695471   1.0000000
B2   B   0.555817316445205   0.444967966223723   0.624075088189246   1.0000000
B2   B   0.722197215825327   0.944247978393499   0.624683369175500   1.0000000
B2   B   0.888898322123939   0.444524842646086   0.624915114695471   1.0000000
B2   B   0.055566018349220   0.444465370031766   0.125011800285481   1.0000000
B2   B   0.222103465869990   0.944327699242314   0.125046556314669   1.0000000
B2   B   0.555610786151833   0.944277543314315   0.125138580150896   1.0000000
B2   B   0.389131403149711   0.444722232114971   0.125259397205279   1.0000000
B2   B   0.888717429234837   0.944247978393499   0.125316630824502   1.0000000
B2   B   0.722257495631917   0.444722232114971   0.125259397205279   1.0000000
B2   B   0.222260031873698   0.611050377435108   0.624930206139075   1.0000000
B2   B   0.055459729189512   0.111048674873299   0.624968250456521   1.0000000
B2   B   0.555751039384898   0.611033924027698   0.622622867174568   1.0000000
B2   B   0.388910514205542   0.111154361744431   0.625003599619368   1.0000000
B2   B   0.888639989150162   0.611051307312459   0.624420511833176   1.0000000
B2   B   0.055457012228075   0.611050377435108   0.125069793860926   1.0000000
B2   B   0.722255612350444   0.111048674873299   0.624968250456521   1.0000000
B2   B   0.222161750974073   0.111107443023702   0.125003735345055   1.0000000
B2   B   0.389077984828942   0.611051307312459   0.125579488166821   1.0000000
B2   B   0.721949551309485   0.611033924027698   0.127377132825444   1.0000000
B2   B   0.555612358716294   0.111107443023702   0.125003735345055   1.0000000
B2   B   0.389077984828942   0.611051307312459   0.624420511833176   1.0000000
B2   B   0.888847507426224   0.111028348185776   0.125041483404453   1.0000000
B2   B   0.222155313184846   0.777643959703033   0.624944112723374   1.0000000
B2   B   0.055547415535137   0.277801481778933   0.625000527131235   1.0000000
B2   B   0.389042104439007   0.278098975152528   0.625151852901311   1.0000000
B2   B   0.555671292621731   0.777534220183025   0.624130918238135   1.0000000
B2   B   0.888529594227948   0.777534220183025   0.624130918238135   1.0000000
B2   B   0.722320788427153   0.277897463060203   0.625012670021848   1.0000000
B2   B   0.055308492675344   0.777612561297631   0.125199796056570   1.0000000
B2   B   0.388970735288950   0.777612561297631   0.125199796056570   1.0000000
B2   B   0.222243341299720   0.277897463060203   0.124987329978149   1.0000000
B2   B   0.722081325607992   0.777495984549324   0.126396652899853   1.0000000
B2   B   0.555723537380182   0.278098975152528   0.124848147098692   1.0000000
B2   B   0.888920732910453   0.277801481778933   0.124999472868765   1.0000000
B2   B   0.055566018349220   0.444465370031766   0.624988199714520   1.0000000
B2   B   0.222103465869990   0.944327699242314   0.624953443685335   1.0000000
B2   B   0.555610786151833   0.944277543314315   0.624861419849110   1.0000000
B2   B   0.389131403149711   0.444722232114971   0.624740602794724   1.0000000
B2   B   0.888717429234837   0.944247978393499   0.624683369175500   1.0000000
B2   B   0.055333423829157   0.944277543314315   0.125138580150896   1.0000000
B2   B   0.722257495631917   0.444722232114971   0.624740602794724   1.0000000
B2   B   0.388890900038985   0.944327699242314   0.125046556314669   1.0000000
B2   B   0.222293187188799   0.444524842646086   0.125084885304530   1.0000000
B2   B   0.222260031873698   0.611050377435108   0.125069793860926   1.0000000
B2   B   0.555817316445205   0.444967966223723   0.125924911810752   1.0000000
B2   B   0.722197215825327   0.944247978393499   0.125316630824502   1.0000000
B2   B   0.888898322123939   0.444524842646086   0.125084885304530   1.0000000
B2   B   0.055457012228075   0.611050377435108   0.624930206139075   1.0000000
B2   B   0.222161750974073   0.111107443023702   0.624996264654950   1.0000000
B2   B   0.721949551309485   0.611033924027698   0.622622867174568   1.0000000
B2   B   0.555612358716294   0.111107443023702   0.624996264654950   1.0000000
B2   B   0.888847507426224   0.111028348185776   0.624958516595557   1.0000000


