data_1
_audit_creation_method   'vasp2cif'
_cell_length_a    14.93631414619966
_cell_length_b    14.936314146199727
_cell_length_c    13.341276283792837
_cell_angle_alpha    90.0
_cell_angle_beta    90.0
_cell_angle_gamma    119.99999999999984

_symmetry_space_group_name_H-M    'P 1'
loop_
_atom_site_label
_atom_site_type_symbol
_atom_site_fract_x
_atom_site_fract_y
_atom_site_fract_z
_atom_site_occupancy
P2   P   0.490934641762362   0.412133987547845   0.375000000000000   1.0000000
N2   N   0.111092522913479   0.055533829602832   0.125066951874896   1.0000000
N2   N   0.611098756215398   0.555576531501362   0.123992884156536   1.0000000
N2   N   0.444455932491384   0.055553133250144   0.125063776284044   1.0000000
N2   N   0.944425835274073   0.555549147031008   0.125055297774299   1.0000000
N2   N   0.777794267728210   0.055563800530773   0.125025847627974   1.0000000
N2   N   0.111101279626278   0.722217306479804   0.624978912963326   1.0000000
N2   N   0.444455932491384   0.722236132574575   0.624936223715955   1.0000000
N2   N   0.277721262711041   0.222188298632736   0.625241432960343   1.0000000
N2   N   0.777754598693120   0.722207688431572   0.624974315668549   1.0000000
N2   N   0.611107854371618   0.222210577145582   0.625039543910659   1.0000000
N2   N   0.944443641111538   0.222226559760463   0.624962563182250   1.0000000
N2   N   0.277783287834486   0.722229457044309   0.125027189055029   1.0000000
N2   N   0.111080141715539   0.222206737524434   0.125042874756721   1.0000000
N2   N   0.444434327573651   0.222208072478378   0.124626706591732   1.0000000
N2   N   0.611107854371618   0.722230610559364   0.124960456089341   1.0000000
N2   N   0.944425835274073   0.722210021576401   0.125055297774299   1.0000000
N2   N   0.777783474737814   0.222224283791065   0.125064995291209   1.0000000
N2   N   0.111102135850391   0.888877095194464   0.624986582614619   1.0000000
N2   N   0.444462710890803   0.888898022112066   0.624969114141558   1.0000000
N2   N   0.277721262711041   0.388866297411632   0.625241432960343   1.0000000
N2   N   0.611098756215398   0.388855558047364   0.626007115843464   1.0000000
N2   N   0.777783474737814   0.888892524280077   0.624935004708792   1.0000000
N2   N   0.944432496403260   0.388893197378497   0.624938004035791   1.0000000
N2   N   0.111092522913479   0.388892026643976   0.125066951874896   1.0000000
N2   N   0.277783287834486   0.888887164123506   0.125027189055029   1.0000000
N2   N   0.611128459639751   0.888903223932394   0.125048913303815   1.0000000
N2   N   0.444259048464412   0.388796190898870   0.122796791787787   1.0000000
N2   N   0.944432496403260   0.888872632358093   0.125061995964208   1.0000000
N2   N   0.777754598693120   0.388880243594877   0.125025684331451   1.0000000
N2   N   0.277774408813771   0.555561779235122   0.624972398610863   1.0000000
N2   N   0.111092522913479   0.055533829602832   0.624933048125104   1.0000000
N2   N   0.611098756215398   0.555576531501362   0.626007115843464   1.0000000
N2   N   0.444455932491384   0.055553133250144   0.624936223715955   1.0000000
N2   N   0.944425835274073   0.555549147031008   0.624944702225700   1.0000000
N2   N   0.111102135850391   0.555558373989256   0.125013417385381   1.0000000
N2   N   0.777794267728210   0.055563800530773   0.624974152372027   1.0000000
N2   N   0.277774408813771   0.055545962911985   0.125027601389137   1.0000000
N2   N   0.444434327573651   0.555559588428608   0.124626706591732   1.0000000
N2   N   0.777750744254127   0.555542038793732   0.124897916850890   1.0000000
N2   N   0.611128459639751   0.055558569040684   0.125048913303815   1.0000000
N2   N   0.444434327573651   0.555559588428608   0.625373293408269   1.0000000
N2   N   0.944443641111538   0.055550414684410   0.125037436817750   1.0000000
N2   N   0.277783287834486   0.722229457044309   0.624972810944971   1.0000000
N2   N   0.111080141715539   0.222206737524434   0.624957125243279   1.0000000
N2   N   0.444434327573651   0.222208072478378   0.625373293408269   1.0000000
N2   N   0.611107854371618   0.722230610559364   0.625039543910659   1.0000000
N2   N   0.944425835274073   0.722210021576401   0.624944702225700   1.0000000
N2   N   0.777783474737814   0.222224283791065   0.624935004708792   1.0000000
N2   N   0.111101279626278   0.722217306479804   0.125021087036674   1.0000000
N2   N   0.444455932491384   0.722236132574575   0.125063776284044   1.0000000
N2   N   0.277721262711041   0.222188298632736   0.124758567039657   1.0000000
N2   N   0.777754598693120   0.722207688431572   0.125025684331451   1.0000000
N2   N   0.611107854371618   0.222210577145582   0.124960456089341   1.0000000
N2   N   0.944443641111538   0.222226559760463   0.125037436817750   1.0000000
N2   N   0.111092522913479   0.388892026643976   0.624933048125104   1.0000000
N2   N   0.277783287834486   0.888887164123506   0.624972810944971   1.0000000
N2   N   0.611128459639751   0.888903223932394   0.624951086696186   1.0000000
N2   N   0.444259048464412   0.388796190898870   0.627203208212213   1.0000000
N2   N   0.944432496403260   0.888872632358093   0.624938004035791   1.0000000
N2   N   0.111102135850391   0.888877095194464   0.125013417385381   1.0000000
N2   N   0.777754598693120   0.388880243594877   0.624974315668549   1.0000000
N2   N   0.444462710890803   0.888898022112066   0.125030885858441   1.0000000
N2   N   0.277721262711041   0.388866297411632   0.124758567039657   1.0000000
N2   N   0.277774408813771   0.555561779235122   0.125027601389137   1.0000000
N2   N   0.611098756215398   0.388855558047364   0.123992884156536   1.0000000
N2   N   0.777783474737814   0.888892524280077   0.125064995291209   1.0000000
N2   N   0.944432496403260   0.388893197378497   0.125061995964208   1.0000000
N2   N   0.111102135850391   0.555558373989256   0.624986582614619   1.0000000
N2   N   0.277774408813771   0.055545962911985   0.624972398610863   1.0000000
N2   N   0.777750744254127   0.555542038793732   0.625102083149111   1.0000000
N2   N   0.611128459639751   0.055558569040684   0.624951086696186   1.0000000
N2   N   0.944443641111538   0.055550414684410   0.624962563182250   1.0000000
N2   N   0.059257930933676   0.113251077563487   0.375000000000000   1.0000000
N2   N   0.555468995876038   0.616646258734356   0.375000000000000   1.0000000
N2   N   0.388920552036272   0.108035379836143   0.375000000000000   1.0000000
N2   N   0.885884735163261   0.609609034248302   0.375000000000000   1.0000000
N2   N   0.724248598942057   0.111642160527514   0.375000000000000   1.0000000
N2   N   0.055543683037369   0.777771770608210   0.875000000000000   1.0000000
N2   N   0.388875745565572   0.777773713692469   0.875000000000000   1.0000000
N2   N   0.222212281610047   0.277772807471691   0.875000000000000   1.0000000
N2   N   0.722211565952471   0.777771744479043   0.875000000000000   1.0000000
N2   N   0.555543379727586   0.277768644756934   0.875000000000000   1.0000000
N2   N   0.888880244524324   0.277775708229798   0.875000000000000   1.0000000
N2   N   0.221295989630643   0.777314661481990   0.375000000000000   1.0000000
N2   N   0.059257930933676   0.279340186703524   0.375000000000000   1.0000000
N2   N   0.397212317208299   0.279405921367604   0.375000000000000   1.0000000
N2   N   0.556392278871257   0.780544687810242   0.375000000000000   1.0000000
N2   N   0.887729895328380   0.777132706814381   0.375000000000000   1.0000000
N2   N   0.723321544997395   0.277171868174989   0.375000000000000   1.0000000
N2   N   0.055542454969003   0.944436056658619   0.875000000000000   1.0000000
N2   N   0.388875745565572   0.944435365206439   0.875000000000000   1.0000000
N2   N   0.222208843568234   0.444441526794685   0.875000000000000   1.0000000
N2   N   0.555549394095520   0.444441363714424   0.875000000000000   1.0000000
N2   N   0.722208911523070   0.944437314252340   0.875000000000000   1.0000000
N2   N   0.888880886258961   0.444441484749396   0.875000000000000   1.0000000
N2   N   0.056844064353541   0.444826480147393   0.375000000000000   1.0000000
N2   N   0.221849653032410   0.943640283407151   0.375000000000000   1.0000000
N2   N   0.556529009037137   0.944931171185231   0.375000000000000   1.0000000
N2   N   0.397212317208299   0.451139729174030   0.375000000000000   1.0000000
N2   N   0.891068674298712   0.945966785397597   0.375000000000000   1.0000000
N2   N   0.717413227957134   0.442460909744699   0.375000000000000   1.0000000
N2   N   0.222206086359459   0.611105808895247   0.875000000000000   1.0000000
N2   N   0.055545741814421   0.111104791563603   0.875000000000000   1.0000000
N2   N   0.555543379727586   0.611108068303987   0.875000000000000   1.0000000
N2   N   0.388874913011632   0.111097496979101   0.875000000000000   1.0000000
N2   N   0.888884930038157   0.611109131685751   0.875000000000000   1.0000000
N2   N   0.054169801569455   0.610545268770244   0.375000000000000   1.0000000
N2   N   0.722208911523070   0.111104930604065   0.875000000000000   1.0000000
N2   N   0.226325277436436   0.113597944782477   0.375000000000000   1.0000000
N2   N   0.388920552036272   0.614218505533472   0.375000000000000   1.0000000
N2   N   0.717413227957134   0.608285651545770   0.375000000000000   1.0000000
N2   N   0.556392278871257   0.109180924394353   0.375000000000000   1.0000000
N2   N   0.388874913011632   0.611110749365874   0.875000000000000   1.0000000
N2   N   0.891839442483996   0.112586387908669   0.375000000000000   1.0000000
N2   N   0.222207539095887   0.777770436214611   0.875000000000000   1.0000000
N2   N   0.055545741814421   0.277774283584154   0.875000000000000   1.0000000
N2   N   0.388876702396007   0.277763587124914   0.875000000000000   1.0000000
N2   N   0.555541620727563   0.777772961181259   0.875000000000000   1.0000000
N2   N   0.888880886258961   0.777772734842902   0.875000000000000   1.0000000
N2   N   0.722211565952471   0.277773154806764   0.875000000000000   1.0000000
N2   N   0.054169801569455   0.776957866132547   0.375000000000000   1.0000000
N2   N   0.388766953331761   0.778704833086371   0.375000000000000   1.0000000
N2   N   0.228124676862504   0.280729005097920   0.375000000000000   1.0000000
N2   N   0.723321544997395   0.779483010155743   0.375000000000000   1.0000000
N2   N   0.555468995876038   0.272156070475017   0.375000000000000   1.0000000
N2   N   0.891068674298712   0.278435222234451   0.375000000000000   1.0000000
N2   N   0.055542454969003   0.444439731643713   0.875000000000000   1.0000000
N2   N   0.222206086359459   0.944433610797551   0.875000000000000   1.0000000
N2   N   0.555540371508688   0.944436852421009   0.875000000000000   1.0000000
N2   N   0.388876702396007   0.444446448604428   0.875000000000000   1.0000000
N2   N   0.888880244524324   0.944437869627862   0.875000000000000   1.0000000
N2   N   0.056844064353541   0.945350917539477   0.375000000000000   1.0000000
N2   N   0.722217820448710   0.444442836497591   0.875000000000000   1.0000000
N2   N   0.388766953331761   0.943395453578724   0.375000000000000   1.0000000
N2   N   0.226325277436436   0.446060665987294   0.375000000000000   1.0000000
N2   N   0.221849653032410   0.611542702958595   0.375000000000000   1.0000000
N2   N   0.724248598942057   0.945939771747878   0.375000000000000   1.0000000
N2   N   0.887729895328380   0.443930521847335   0.375000000000000   1.0000000
N2   N   0.055543683037369   0.611105245762494   0.875000000000000   1.0000000
N2   N   0.222208843568234   0.111100650106884   0.875000000000000   1.0000000
N2   N   0.722217820448710   0.611108317284454   0.875000000000000   1.0000000
N2   N   0.555541620727563   0.111101992879640   0.875000000000000   1.0000000
N2   N   0.888880368345903   0.111106850839623   0.875000000000000   1.0000000
B2   B   0.114447392440359   0.057419294180358   0.375000000000000   1.0000000
B2   B   0.606274302556097   0.558567138995811   0.375000000000000   1.0000000
B2   B   0.445063851510750   0.053753598246315   0.375000000000000   1.0000000
B2   B   0.942768280784119   0.554980217802543   0.375000000000000   1.0000000
B2   B   0.780495345710406   0.056914339521871   0.375000000000000   1.0000000
B2   B   0.111097725299125   0.722215529316227   0.875000000000000   1.0000000
B2   B   0.444427250166014   0.722207177164057   0.875000000000000   1.0000000
B2   B   0.277791063782625   0.222231181902565   0.875000000000000   1.0000000
B2   B   0.777755982037176   0.722198753222886   0.875000000000000   1.0000000
B2   B   0.611087198484875   0.222226635939568   0.875000000000000   1.0000000
B2   B   0.944442078661607   0.222222438232727   0.875000000000000   1.0000000
B2   B   0.277455524637830   0.722522079071882   0.375000000000000   1.0000000
B2   B   0.116131568221430   0.224732450777380   0.375000000000000   1.0000000
B2   B   0.445121149126231   0.217859433566053   0.375000000000000   1.0000000
B2   B   0.612679215763962   0.726714081132063   0.375000000000000   1.0000000
B2   B   0.942768280784119   0.721121396314911   0.375000000000000   1.0000000
B2   B   0.779977455084898   0.222607048688928   0.375000000000000   1.0000000
B2   B   0.111101892660510   0.888884947776969   0.875000000000000   1.0000000
B2   B   0.444426849358586   0.888880091345958   0.875000000000000   1.0000000
B2   B   0.277791063782625   0.388893215213389   0.875000000000000   1.0000000
B2   B   0.611079890844407   0.388894884544084   0.875000000000000   1.0000000
B2   B   0.777764411305829   0.888876755706176   0.875000000000000   1.0000000
B2   B   0.944435499156268   0.388888429738562   0.875000000000000   1.0000000
B2   B   0.114447392440359   0.390361431593330   0.375000000000000   1.0000000
B2   B   0.277455524637830   0.888266778899276   0.375000000000000   1.0000000
B2   B   0.612911139484775   0.890914704352833   0.375000000000000   1.0000000
B2   B   0.945276210759172   0.889247379017504   0.375000000000000   1.0000000
B2   B   0.776132764348964   0.388083334513728   0.375000000000000   1.0000000
B2   B   0.277771263855454   0.555547018125464   0.875000000000000   1.0000000
B2   B   0.111112297143806   0.055556376782339   0.875000000000000   1.0000000
B2   B   0.611079890844407   0.555518339633650   0.875000000000000   1.0000000
B2   B   0.444427250166014   0.055553406335291   0.875000000000000   1.0000000
B2   B   0.944431198862429   0.555551223901800   0.875000000000000   1.0000000
B2   B   0.110807771637058   0.555789707218834   0.375000000000000   1.0000000
B2   B   0.777766994541724   0.055550163937529   0.875000000000000   1.0000000
B2   B   0.278365426528435   0.054691962752347   0.375000000000000   1.0000000
B2   B   0.445121149126231   0.560595048893515   0.375000000000000   1.0000000
B2   B   0.774073333577777   0.553703333455557   0.375000000000000   1.0000000
B2   B   0.612911139484775   0.055329768465272   0.375000000000000   1.0000000
B2   B   0.444432653995356   0.555537062848153   0.875000000000000   1.0000000
B2   B   0.947764522701932   0.057396535004466   0.375000000000000   1.0000000
B2   B   0.277763413246462   0.722213401886350   0.875000000000000   1.0000000
B2   B   0.111120663316597   0.222226998324963   0.875000000000000   1.0000000
B2   B   0.444432653995356   0.222228924480540   0.875000000000000   1.0000000
B2   B   0.611087198484875   0.722193895878635   0.875000000000000   1.0000000
B2   B   0.944431198862429   0.722213308293965   0.875000000000000   1.0000000
B2   B   0.777764411305829   0.222220988932983   0.875000000000000   1.0000000
B2   B   0.110010939788759   0.721672136561045   0.375000000000000   1.0000000
B2   B   0.445063851510750   0.724643586597770   0.375000000000000   1.0000000
B2   B   0.284926071541540   0.226305531813761   0.375000000000000   1.0000000
B2   B   0.776132764348964   0.721382763168566   0.375000000000000   1.0000000
B2   B   0.612679215763962   0.219298467965229   0.375000000000000   1.0000000
B2   B   0.947764522701932   0.223701321030801   0.375000000000000   1.0000000
B2   B   0.111112297143806   0.388889253694796   0.875000000000000   1.0000000
B2   B   0.277763413246462   0.888883344693440   0.875000000000000   1.0000000
B2   B   0.611092306228753   0.888876116006994   0.875000000000000   1.0000000
B2   B   0.444451891502671   0.388892612418000   0.875000000000000   1.0000000
B2   B   0.944435499156268   0.888880402751037   0.875000000000000   1.0000000
B2   B   0.110807771637058   0.888351397751554   0.375000000000000   1.0000000
B2   B   0.777755982037176   0.388890562147618   0.875000000000000   1.0000000
B2   B   0.445065773439194   0.889199553386261   0.375000000000000   1.0000000
B2   B   0.284926071541540   0.391953873061108   0.375000000000000   1.0000000
B2   B   0.278365426528435   0.557006797109425   0.375000000000000   1.0000000
B2   B   0.606274302556097   0.381040496893615   0.375000000000000   1.0000000
B2   B   0.779977455084898   0.890703739729297   0.375000000000000   1.0000000
B2   B   0.945276210759172   0.389362165074999   0.375000000000000   1.0000000
B2   B   0.111101892660510   0.555550278216869   0.875000000000000   1.0000000
B2   B   0.277771263855454   0.055557579063325   0.875000000000000   1.0000000
B2   B   0.777753581032222   0.555543457182780   0.875000000000000   1.0000000
B2   B   0.611092306228753   0.055549523555089   0.875000000000000   1.0000000
B2   B   0.944442078661607   0.055552973762216   0.875000000000000   1.0000000
B2   B   0.055567539806688   0.111117100462918   0.125014749390581   1.0000000
B2   B   0.555535538135541   0.611037170204367   0.124494929226275   1.0000000
B2   B   0.388909528787148   0.111164252322893   0.124948854039472   1.0000000
B2   B   0.888822676116889   0.611078004725115   0.124981830331755   1.0000000
B2   B   0.722232163110537   0.111114694157710   0.124999228850943   1.0000000
B2   B   0.055543361755701   0.777772610196893   0.624999125136737   1.0000000
B2   B   0.388899773821530   0.777775371603829   0.624990836541612   1.0000000
B2   B   0.222231378865747   0.277782356099541   0.625148435321651   1.0000000
B2   B   0.722197025084610   0.777758298315964   0.625049678834004   1.0000000
B2   B   0.555535538135541   0.277831701264510   0.625505070773724   1.0000000
B2   B   0.888891716549412   0.277781868858991   0.624992942579196   1.0000000
B2   B   0.222227009725079   0.777780171529207   0.124996351227135   1.0000000
B2   B   0.055567539806688   0.277783772677106   0.125014749390581   1.0000000
B2   B   0.388882572933670   0.277844501237973   0.124162947239728   1.0000000
B2   B   0.555557523759997   0.777770441378913   0.124991788941925   1.0000000
B2   B   0.888855290983861   0.777754463988010   0.125009842996964   1.0000000
B2   B   0.722197025084610   0.277772060101982   0.124950321165996   1.0000000
B2   B   0.055556241151402   0.944442867751083   0.624985776862865   1.0000000
B2   B   0.388899773821530   0.944457735551037   0.624990836541612   1.0000000
B2   B   0.222232352229376   0.444433108849286   0.625003805322579   1.0000000
B2   B   0.555394783208144   0.444364058270736   0.625326353670302   1.0000000
B2   B   0.722232163110537   0.944450802286163   0.625000771149056   1.0000000
B2   B   0.888855290983861   0.444434160329186   0.624990157003036   1.0000000
B2   B   0.055556241151402   0.444446706733648   0.125014223137136   1.0000000
B2   B   0.222233555571080   0.944462305819453   0.125003507354888   1.0000000
B2   B   0.555566783157435   0.944450058245382   0.125000886736487   1.0000000
B2   B   0.388882572933670   0.444371405029032   0.124162947239728   1.0000000
B2   B   0.888891716549412   0.944443181023757   0.125007057420803   1.0000000
B2   B   0.722084046815028   0.444391614809251   0.124599535609966   1.0000000
B2   B   0.222233555571080   0.611104583084962   0.624996492645111   1.0000000
B2   B   0.055567539806688   0.111117100462918   0.624985250609418   1.0000000
B2   B   0.555535538135541   0.611037170204367   0.625505070773724   1.0000000
B2   B   0.388909528787148   0.111164252322893   0.625051145960527   1.0000000
B2   B   0.888822676116889   0.611078004725115   0.625018169668243   1.0000000
B2   B   0.055543361755701   0.611104084892143   0.125000874863262   1.0000000
B2   B   0.722232163110537   0.111114694157710   0.625000771149056   1.0000000
B2   B   0.222232352229376   0.111132576713425   0.124996194677421   1.0000000
B2   B   0.388909528787148   0.611078609797597   0.124948854039472   1.0000000
B2   B   0.722084046815028   0.611025765339112   0.124599535609966   1.0000000
B2   B   0.555557523759997   0.111120415714418   0.124991788941925   1.0000000
B2   B   0.388909528787148   0.611078609797597   0.625051145960527   1.0000000
B2   B   0.888905635658206   0.111119484495775   0.124997931298395   1.0000000
B2   B   0.222227009725079   0.777780171529207   0.625003648772865   1.0000000
B2   B   0.055567539806688   0.277783772677106   0.624985250609418   1.0000000
B2   B   0.388882572933670   0.277844501237973   0.625837052760272   1.0000000
B2   B   0.555557523759997   0.777770441378913   0.625008211058075   1.0000000
B2   B   0.888855290983861   0.777754463988010   0.624990157003036   1.0000000
B2   B   0.722197025084610   0.277772060101982   0.625049678834004   1.0000000
B2   B   0.055543361755701   0.777772610196893   0.125000874863262   1.0000000
B2   B   0.388899773821530   0.777775371603829   0.125009163458388   1.0000000
B2   B   0.222231378865747   0.277782356099541   0.124851564678349   1.0000000
B2   B   0.722197025084610   0.777758298315964   0.124950321165996   1.0000000
B2   B   0.555535538135541   0.277831701264510   0.124494929226275   1.0000000
B2   B   0.888891716549412   0.277781868858991   0.125007057420803   1.0000000
B2   B   0.055556241151402   0.444446706733648   0.624985776862865   1.0000000
B2   B   0.222233555571080   0.944462305819453   0.624996492645111   1.0000000
B2   B   0.555566783157435   0.944450058245382   0.624999113263513   1.0000000
B2   B   0.388882572933670   0.444371405029032   0.625837052760272   1.0000000
B2   B   0.888891716549412   0.944443181023757   0.624992942579196   1.0000000
B2   B   0.055556241151402   0.944442867751083   0.125014223137136   1.0000000
B2   B   0.722084046815028   0.444391614809251   0.625400464390035   1.0000000
B2   B   0.388899773821530   0.944457735551037   0.125009163458388   1.0000000
B2   B   0.222232352229376   0.444433108849286   0.124996194677421   1.0000000
B2   B   0.222233555571080   0.611104583084962   0.125003507354888   1.0000000
B2   B   0.555394783208144   0.444364058270736   0.124673646329698   1.0000000
B2   B   0.722232163110537   0.944450802286163   0.124999228850943   1.0000000
B2   B   0.888855290983861   0.444434160329186   0.125009842996964   1.0000000
B2   B   0.055543361755701   0.611104084892143   0.624999125136737   1.0000000
B2   B   0.222232352229376   0.111132576713425   0.625003805322579   1.0000000
B2   B   0.722084046815028   0.611025765339112   0.625400464390035   1.0000000
B2   B   0.555557523759997   0.111120415714418   0.625008211058075   1.0000000
B2   B   0.888905635658206   0.111119484495775   0.625002068701605   1.0000000


