data_1
_audit_creation_method   'vasp2cif'
_cell_length_a    17.52789999999977
_cell_length_b    17.52789999999977
_cell_length_c    15.0
_cell_angle_alpha    90.0
_cell_angle_beta    90.0
_cell_angle_gamma    119.99999999999916

_symmetry_space_group_name_H-M    'P 1'
loop_
_atom_site_label
_atom_site_type_symbol
_atom_site_fract_x
_atom_site_fract_y
_atom_site_fract_z
_atom_site_occupancy
S2   S   0.512542207388522   0.487459194528412   0.111222221635509   1.0000000
B2   B   0.905736146108896   0.953171316797010   0.110927993627373   1.0000000
B2   B   0.904558870258332   0.095443150937629   0.110973419028632   1.0000000
B2   B   0.904218611276137   0.238170792491391   0.110978395959123   1.0000000
B2   B   0.904412551275285   0.381020885207251   0.110928077960623   1.0000000
B2   B   0.905507141369371   0.524038139056423   0.111003875100894   1.0000000
B2   B   0.906778574073377   0.667367746056409   0.111092775032820   1.0000000
B2   B   0.907172581097271   0.810991761730745   0.111015932316589   1.0000000
B2   B   0.048054307241433   0.951947713954631   0.110939316533785   1.0000000
B2   B   0.046830704398987   0.094265875087106   0.110927993627373   1.0000000
B2   B   0.046507825780697   0.237395550871927   0.110910554757389   1.0000000
B2   B   0.046831225403577   0.380539172149771   0.110939973132606   1.0000000
B2   B   0.047716133072171   0.523574689395437   0.110971269049390   1.0000000
B2   B   0.048625190168680   0.666512100572616   0.111029352076594   1.0000000
B2   B   0.048742609375923   0.809396863464311   0.111014319269074   1.0000000
B2   B   0.190605157731673   0.951259411820146   0.111014319269074   1.0000000
B2   B   0.189010259465314   0.092829440098725   0.111015932316589   1.0000000
B2   B   0.187792741324804   0.235163316602486   0.110977493585954   1.0000000
B2   B   0.188713911120832   0.379544715263510   0.110956710615076   1.0000000
B2   B   0.189943401818163   0.523200740161342   0.111039830141095   1.0000000
B2   B   0.191053648725266   0.666177362498568   0.111048850123705   1.0000000
B2   B   0.191121455568888   0.808880565627110   0.110986318413207   1.0000000
B2   B   0.333489920624335   0.951376831027285   0.111029352076594   1.0000000
B2   B   0.332634275140591   0.093223447122641   0.111092775032820   1.0000000
B2   B   0.329536749996832   0.232881417272311   0.111116145813553   1.0000000
B2   B   0.328692709610055   0.375257730397811   0.111180628854641   1.0000000
B2   B   0.332481719379303   0.523372870633739   0.111113837623541   1.0000000
B2   B   0.333838764395046   0.666163256801910   0.111111119394916   1.0000000
B2   B   0.333824658698504   0.808948372470717   0.111048850123705   1.0000000
B2   B   0.476427331801578   0.952285888123878   0.110971269049390   1.0000000
B2   B   0.475963882140511   0.094494879826607   0.111003875100894   1.0000000
B2   B   0.475067892250356   0.236152888043844   0.111115195277651   1.0000000
B2   B   0.468883818268691   0.371980321344612   0.111223567892321   1.0000000
B2   B   0.476629150563302   0.667520301817748   0.111113837623541   1.0000000
B2   B   0.476801281035692   0.810058619377903   0.111039830141095   1.0000000
B2   B   0.619462849046212   0.953170795792406   0.110939973132606   1.0000000
B2   B   0.618981135988723   0.095589469920645   0.110928077960623   1.0000000
B2   B   0.618681225992054   0.238299707782863   0.110992837448183   1.0000000
B2   B   0.618510131438195   0.381491889757812   0.111100576384763   1.0000000
B2   B   0.628021699851414   0.531118202928299   0.111223567892321   1.0000000
B2   B   0.624744290798138   0.671309311586935   0.111180628854641   1.0000000
B2   B   0.620457305932529   0.811288110075086   0.110956710615076   1.0000000
B2   B   0.762606470324029   0.953494195415264   0.110910554757389   1.0000000
B2   B   0.761831228704624   0.095783409919908   0.110978395959123   1.0000000
B2   B   0.761567033069439   0.238434988126554   0.110999044376003   1.0000000
B2   B   0.761702313413171   0.381320795204002   0.110992837448183   1.0000000
B2   B   0.763849133152210   0.524934128946586   0.111115195277651   1.0000000
B2   B   0.767120603923711   0.670465271200192   0.111116145813553   1.0000000
B2   B   0.764838704593540   0.812209279871142   0.110977493585954   1.0000000
N2   N   0.953501415774672   0.905547691553979   0.110917936243213   1.0000000
N2   N   0.952210167170232   0.047791234747767   0.110931829014005   1.0000000
N2   N   0.951604817829177   0.190384776983727   0.110943408730868   1.0000000
N2   N   0.951699352179358   0.333246830753839   0.110916820354299   1.0000000
N2   N   0.952505229188277   0.476144585623835   0.110915860969230   1.0000000
N2   N   0.953534431044017   0.619163866428149   0.111035471391914   1.0000000
N2   N   0.953905513421127   0.762421689822742   0.111033493902371   1.0000000
N2   N   0.095708119828826   0.904293282089180   0.110961860455654   1.0000000
N2   N   0.094453710363999   0.046499986143329   0.110917936243213   1.0000000
N2   N   0.093342533794344   0.188930396286943   0.110889810818859   1.0000000
N2   N   0.093759514905130   0.332431319723662   0.110884354489531   1.0000000
N2   N   0.094766225064737   0.475697845933617   0.110957812934733   1.0000000
N2   N   0.095819354068695   0.618714625511349   0.111000935036143   1.0000000
N2   N   0.096075164047766   0.761580576312253   0.110982333576115   1.0000000
N2   N   0.238420825605733   0.903926237870227   0.110982333576115   1.0000000
N2   N   0.237579712095232   0.046095888496805   0.111033493902371   1.0000000
N2   N   0.235238909492155   0.187147017263776   0.111014208698127   1.0000000
N2   N   0.233987948266684   0.329626285558989   0.110997524283844   1.0000000
N2   N   0.236456351476429   0.474918032615374   0.111000549398377   1.0000000
N2   N   0.238420979732113   0.618506469903149   0.111065193792799   1.0000000
N2   N   0.238656115838675   0.761345286079264   0.111010691549470   1.0000000
N2   N   0.381286776406618   0.904182047849298   0.111000935036143   1.0000000
N2   N   0.380837535489888   0.046466970873988   0.111035471391914   1.0000000
N2   N   0.379756206139907   0.188063236836964   0.111103999202590   1.0000000
N2   N   0.375451127226723   0.326656118519563   0.111226976556013   1.0000000
N2   N   0.368295444944987   0.467353693300598   0.111235254737411   1.0000000
N2   N   0.381405912316716   0.618595489601321   0.111090745572843   1.0000000
N2   N   0.381494932014884   0.761580422185864   0.111065193792799   1.0000000
N2   N   0.524303555983402   0.905235176853303   0.110957812934733   1.0000000
N2   N   0.523856816293178   0.047496172729749   0.110915860969230   1.0000000
N2   N   0.523422897068440   0.189776898277949   0.111013959452554   1.0000000
N2   N   0.522560017880066   0.331756190635199   0.111150260797689   1.0000000
N2   N   0.532647708616497   0.631705956973030   0.111235254737411   1.0000000
N2   N   0.525083369301630   0.763545050441542   0.111000549398377   1.0000000
N2   N   0.667570082193400   0.906241887012840   0.110884354489531   1.0000000
N2   N   0.666754571163187   0.048302049738609   0.110916820354299   1.0000000
N2   N   0.666377080582726   0.190903203417324   0.110947009928019   1.0000000
N2   N   0.666126540718252   0.333874861198742   0.110995880782117   1.0000000
N2   N   0.668245211281823   0.477441384036888   0.111150260797689   1.0000000
N2   N   0.673345283397390   0.624550274691347   0.111226976556013   1.0000000
N2   N   0.670375116358050   0.766013453651347   0.110997524283844   1.0000000
N2   N   0.811071005631111   0.906658868123679   0.110889810818859   1.0000000
N2   N   0.809616624934271   0.048396584088760   0.110943408730868   1.0000000
N2   N   0.809125660728275   0.190875741189749   0.110991241275326   1.0000000
N2   N   0.809098198500597   0.333624321334280   0.110947009928019   1.0000000
N2   N   0.810224503640076   0.476578504848604   0.111013959452554   1.0000000
N2   N   0.811938165081056   0.620245195778123   0.111103999202590   1.0000000
N2   N   0.812854384654244   0.764762492425822   0.111014208698127   1.0000000


