data_1
_audit_creation_method   'vasp2cif'
_cell_length_a    17.52789999999977
_cell_length_b    17.52789999999977
_cell_length_c    15.0
_cell_angle_alpha    90.0
_cell_angle_beta    90.0
_cell_angle_gamma    119.99999999999916

_symmetry_space_group_name_H-M    'P 1'
loop_
_atom_site_label
_atom_site_type_symbol
_atom_site_fract_x
_atom_site_fract_y
_atom_site_fract_z
_atom_site_occupancy
B2   B   0.902570357247807   0.948989965570361   0.108112537412880   1.0000000
B2   B   0.904851459573555   0.092646636821872   0.108679478749539   1.0000000
B2   B   0.905936916652563   0.235708627351088   0.108419074524065   1.0000000
B2   B   0.906115011491349   0.378756786975988   0.107914848674280   1.0000000
B2   B   0.905196803387371   0.521981499443637   0.106874971192286   1.0000000
B2   B   0.903682313799571   0.664776668709964   0.105846551937180   1.0000000
B2   B   0.901798177642219   0.806359705576067   0.106900199854587   1.0000000
B2   B   0.047212783898226   0.952636974526926   0.106621261082131   1.0000000
B2   B   0.049461886434273   0.096235778477057   0.107709075253016   1.0000000
B2   B   0.050014540042922   0.238222248749410   0.108226396634137   1.0000000
B2   B   0.049013186090525   0.380272744331001   0.107678949101085   1.0000000
B2   B   0.046978193687340   0.523194564809101   0.107245481029067   1.0000000
B2   B   0.045902532326727   0.666493474213340   0.106735475339181   1.0000000
B2   B   0.046139851811450   0.809512239239204   0.106154153629302   1.0000000
B2   B   0.190185551926257   0.954014126158485   0.107977048136870   1.0000000
B2   B   0.193347090033540   0.098922934820870   0.108931897211922   1.0000000
B2   B   0.196913672930164   0.244020763166045   0.109755112796527   1.0000000
B2   B   0.193919689299685   0.383449832026848   0.109326304785210   1.0000000
B2   B   0.189074110311547   0.524967728444165   0.107805214236656   1.0000000
B2   B   0.187033576963017   0.667703523621868   0.108360982176342   1.0000000
B2   B   0.188657762350934   0.810715021533961   0.108124218896795   1.0000000
B2   B   0.332518378856120   0.953757308220147   0.109971506685593   1.0000000
B2   B   0.334570273158586   0.097502426910545   0.111447225934564   1.0000000
B2   B   0.340359363050031   0.245386620929535   0.113283874276693   1.0000000
B2   B   0.346221700175342   0.394582258491073   0.113425455713397   1.0000000
B2   B   0.331921368401396   0.529114615902133   0.107973536534378   1.0000000
B2   B   0.327143228507751   0.669683636706376   0.106162847031490   1.0000000
B2   B   0.330722502324172   0.811292575591731   0.109276250446388   1.0000000
B2   B   0.474981653392733   0.951420786755452   0.110637995310666   1.0000000
B2   B   0.476549709976581   0.094243375981052   0.112136340654365   1.0000000
B2   B   0.478580488831194   0.237488450815930   0.115298308700641   1.0000000
B2   B   0.490530574509657   0.388064718133139   0.117828881041051   1.0000000
B2   B   0.485057200653477   0.578882060172179   0.115590848272199   1.0000000
B2   B   0.465372779512959   0.664411507688565   0.104162654710791   1.0000000
B2   B   0.472628285537438   0.808386407652291   0.108820220396774   1.0000000
B2   B   0.617250688461289   0.948002693942753   0.110981121481029   1.0000000
B2   B   0.619106277623683   0.091761177040907   0.111099268447006   1.0000000
B2   B   0.620450626192902   0.234307352523077   0.112961174476678   1.0000000
B2   B   0.622818995183489   0.375965549771100   0.113367817913509   1.0000000
B2   B   0.614272297576320   0.509196640306851   0.113232112315161   1.0000000
B2   B   0.610087027774031   0.650500913632848   0.119267715390016   1.0000000
B2   B   0.613449114662405   0.801826521184617   0.112431011724205   1.0000000
B2   B   0.759374247050639   0.946995946471899   0.110934984509434   1.0000000
B2   B   0.761751084535464   0.091332680366120   0.109985065269225   1.0000000
B2   B   0.763044103105942   0.234651401589414   0.109998155108418   1.0000000
B2   B   0.764190451585365   0.377726793938507   0.109776348646812   1.0000000
B2   B   0.763193711224008   0.520296275581843   0.107530962764518   1.0000000
B2   B   0.758386919538260   0.659590446340112   0.109752951759806   1.0000000
B2   B   0.755491658974100   0.801078902371039   0.111810491766184   1.0000000
N2   N   0.950620012757793   0.902277009990890   0.106690133447351   1.0000000
N2   N   0.952665145765597   0.045543460192180   0.107912284510612   1.0000000
N2   N   0.954009017764117   0.188635654842467   0.108258164886949   1.0000000
N2   N   0.953792916496638   0.331347030965155   0.107783683884474   1.0000000
N2   N   0.952301799699284   0.474265205734643   0.107163354273730   1.0000000
N2   N   0.950951498093247   0.617403822173786   0.106017979796522   1.0000000
N2   N   0.950253102021170   0.760034935595190   0.105668335064319   1.0000000
N2   N   0.094552413951920   0.905226858811338   0.106540305885347   1.0000000
N2   N   0.097134230389358   0.049154379817857   0.107353603495698   1.0000000
N2   N   0.099945977541812   0.193087096188722   0.108310669189919   1.0000000
N2   N   0.098347645585107   0.333936797668737   0.108270299119334   1.0000000
N2   N   0.094733074053224   0.475665181136171   0.107402609534688   1.0000000
N2   N   0.092695340642501   0.618638231855344   0.107541504269822   1.0000000
N2   N   0.093387959059311   0.761996677778734   0.106854642129808   1.0000000
N2   N   0.237202781270485   0.906183843630825   0.108583688480128   1.0000000
N2   N   0.239402604031847   0.050139946509719   0.109253000070209   1.0000000
N2   N   0.244387124867080   0.196525159693133   0.110518270961766   1.0000000
N2   N   0.248249741263469   0.341873209426534   0.110811585767672   1.0000000
N2   N   0.238427218502270   0.478334697172814   0.108756787261311   1.0000000
N2   N   0.233558679927679   0.619932289029774   0.108078473720063   1.0000000
N2   N   0.235623850275429   0.762989650073029   0.108884513945278   1.0000000
N2   N   0.379701385946026   0.905936126585165   0.110163450997430   1.0000000
N2   N   0.381312323853063   0.049084634642773   0.111191514986401   1.0000000
N2   N   0.384050569920362   0.194000536083935   0.113908718896497   1.0000000
N2   N   0.394209972504345   0.346055600041621   0.115547258830331   1.0000000
N2   N   0.394672958360261   0.495149470546726   0.113681294018202   1.0000000
N2   N   0.372969437398483   0.622445411839357   0.102894995187348   1.0000000
N2   N   0.377685870760358   0.763646850149584   0.108157062063509   1.0000000
N2   N   0.521996455702007   0.902911907279676   0.110525221446673   1.0000000
N2   N   0.523754119992884   0.046250624424979   0.111237124970891   1.0000000
N2   N   0.525264291674819   0.189349421387950   0.113899352489184   1.0000000
N2   N   0.528405698483690   0.333002895907941   0.117359665049936   1.0000000
N2   N   0.518304635820655   0.758036642961782   0.108108626146783   1.0000000
N2   N   0.663302355803019   0.897800462186627   0.111932506610772   1.0000000
N2   N   0.666158590836064   0.043423621643673   0.110625636976632   1.0000000
N2   N   0.667643135923123   0.186928798242396   0.111403794416399   1.0000000
N2   N   0.669200844915184   0.329334553324598   0.112614487439871   1.0000000
N2   N   0.667739421825322   0.470532208483308   0.109536029375598   1.0000000
N2   N   0.659891844802527   0.605954881596730   0.113953075788289   1.0000000
N2   N   0.656735833957914   0.747917399209501   0.115986900497618   1.0000000
N2   N   0.805409057834477   0.897809078412927   0.110177030012710   1.0000000
N2   N   0.808715127436827   0.043039182287736   0.109837895319033   1.0000000
N2   N   0.810350629006991   0.186990847873036   0.109301323405867   1.0000000
N2   N   0.811037266625967   0.330177851722783   0.109173641514067   1.0000000
N2   N   0.810221550308207   0.473062840403873   0.107796495516291   1.0000000
N2   N   0.807905510584478   0.614971492337046   0.106799956302903   1.0000000
N2   N   0.804481206169605   0.755064402584717   0.109318502722689   1.0000000
Ga2   Ga   0.518880958435632   0.511934806159092   0.234614343066994   1.0000000


