data_1
_audit_creation_method   'vasp2cif'
_cell_length_a    14.93631414619966
_cell_length_b    14.936314146199727
_cell_length_c    13.341276283792837
_cell_angle_alpha    90.0
_cell_angle_beta    90.0
_cell_angle_gamma    119.99999999999984

_symmetry_space_group_name_H-M    'P 1'
loop_
_atom_site_label
_atom_site_type_symbol
_atom_site_fract_x
_atom_site_fract_y
_atom_site_fract_z
_atom_site_occupancy
Ge2   Ge   0.423076188135299   0.378204760734313   0.375000000000000   1.0000000
Ge2   Ge   0.574704682723699   0.454019008028514   0.375000000000000   1.0000000
N2   N   0.111437629169103   0.055727666107547   0.125143863724817   1.0000000
N2   N   0.611532239386003   0.555979429748294   0.121914429530678   1.0000000
N2   N   0.444768362756369   0.055705899577266   0.125131588536784   1.0000000
N2   N   0.944717603797479   0.555689216607731   0.125132613770531   1.0000000
N2   N   0.778138504955025   0.055735919144181   0.124899055785837   1.0000000
N2   N   0.111382201175001   0.722357767254164   0.624967778538359   1.0000000
N2   N   0.444768362756369   0.722395796512439   0.624868411463215   1.0000000
N2   N   0.278123115662283   0.222374608638053   0.625351640719239   1.0000000
N2   N   0.778130960117192   0.722483487674876   0.625297703310550   1.0000000
N2   N   0.611480415185646   0.222309594497154   0.625375655187398   1.0000000
N2   N   0.944801244862935   0.222376125022669   0.625075819539269   1.0000000
N2   N   0.278083623852051   0.722385952602231   0.125027200194704   1.0000000
N2   N   0.111464109519795   0.222398721426562   0.125168682734351   1.0000000
N2   N   0.444791420733933   0.222387650244927   0.124380314120298   1.0000000
N2   N   0.611480415185646   0.722504154021819   0.124624344812602   1.0000000
N2   N   0.944717603797479   0.722361720523082   0.125132613770531   1.0000000
N2   N   0.778147955031755   0.222337534849877   0.124899589724719   1.0000000
N2   N   0.111402636516503   0.889040130633539   0.624954765151285   1.0000000
N2   N   0.444757123313107   0.889045228323218   0.624997328508738   1.0000000
N2   N   0.278123115662283   0.389081840357559   0.625351640719239   1.0000000
N2   N   0.611532239386003   0.388886142971037   0.628085570469322   1.0000000
N2   N   0.778147955031755   0.889143753515208   0.625100410275282   1.0000000
N2   N   0.944778468541739   0.389017235711651   0.625005225730737   1.0000000
N2   N   0.111437629169103   0.389043296394885   0.125143863724817   1.0000000
N2   N   0.278083623852051   0.889031004583147   0.125027200194704   1.0000000
N2   N   0.611456435651635   0.889095172173064   0.124973748847052   1.0000000
N2   N   0.444749418997429   0.389041376165379   0.120791850865933   1.0000000
N2   N   0.944778468541739   0.889094566163416   0.124994774269263   1.0000000
N2   N   0.778130960117192   0.388980805775645   0.124702296689450   1.0000000
N2   N   0.278111744526609   0.555749582783696   0.624835017530592   1.0000000
N2   N   0.111437629169103   0.055727666107547   0.624856136275184   1.0000000
N2   N   0.611532239386003   0.555979429748294   0.628085570469322   1.0000000
N2   N   0.444768362756369   0.055705899577266   0.624868411463215   1.0000000
N2   N   0.944717603797479   0.555689216607731   0.624867386229469   1.0000000
N2   N   0.111402636516503   0.555695839216293   0.125045234848715   1.0000000
N2   N   0.778138504955025   0.055735919144181   0.625100944214163   1.0000000
N2   N   0.278111744526609   0.055695495076250   0.125164982469408   1.0000000
N2   N   0.444791420733933   0.555737103822342   0.124380314120298   1.0000000
N2   N   0.778014982046722   0.555674157690028   0.124770745110690   1.0000000
N2   N   0.611456435651635   0.055694596811899   0.124973748847052   1.0000000
N2   N   0.444791420733933   0.555737103822342   0.625619685879703   1.0000000
N2   N   0.944801244862935   0.055758453173602   0.124924180460731   1.0000000
N2   N   0.278083623852051   0.722385952602231   0.624972799805297   1.0000000
N2   N   0.111464109519795   0.222398721426562   0.624831317265649   1.0000000
N2   N   0.444791420733933   0.222387650244927   0.625619685879703   1.0000000
N2   N   0.611480415185646   0.722504154021819   0.625375655187398   1.0000000
N2   N   0.944717603797479   0.722361720523082   0.624867386229469   1.0000000
N2   N   0.778147955031755   0.222337534849877   0.625100410275282   1.0000000
N2   N   0.111382201175001   0.722357767254164   0.125032221461640   1.0000000
N2   N   0.444768362756369   0.722395796512439   0.125131588536784   1.0000000
N2   N   0.278123115662283   0.222374608638053   0.124648359280761   1.0000000
N2   N   0.778130960117192   0.722483487674876   0.124702296689450   1.0000000
N2   N   0.611480415185646   0.222309594497154   0.124624344812602   1.0000000
N2   N   0.944801244862935   0.222376125022669   0.124924180460731   1.0000000
N2   N   0.111437629169103   0.389043296394885   0.624856136275184   1.0000000
N2   N   0.278083623852051   0.889031004583147   0.624972799805297   1.0000000
N2   N   0.611456435651635   0.889095172173064   0.625026251152948   1.0000000
N2   N   0.444749418997429   0.389041376165379   0.629208149134068   1.0000000
N2   N   0.944778468541739   0.889094566163416   0.625005225730737   1.0000000
N2   N   0.111402636516503   0.889040130633539   0.125045234848715   1.0000000
N2   N   0.778130960117192   0.388980805775645   0.625297703310550   1.0000000
N2   N   0.444757123313107   0.889045228323218   0.125002671491262   1.0000000
N2   N   0.278123115662283   0.389081840357559   0.124648359280761   1.0000000
N2   N   0.278111744526609   0.555749582783696   0.125164982469408   1.0000000
N2   N   0.611532239386003   0.388886142971037   0.121914429530678   1.0000000
N2   N   0.778147955031755   0.889143753515208   0.124899589724719   1.0000000
N2   N   0.944778468541739   0.389017235711651   0.124994774269263   1.0000000
N2   N   0.111402636516503   0.555695839216293   0.624954765151285   1.0000000
N2   N   0.278111744526609   0.055695495076250   0.624835017530592   1.0000000
N2   N   0.778014982046722   0.555674157690028   0.625229254889309   1.0000000
N2   N   0.611456435651635   0.055694596811899   0.625026251152948   1.0000000
N2   N   0.944801244862935   0.055758453173602   0.625075819539269   1.0000000
N2   N   0.054648374108264   0.110492918173568   0.375000000000000   1.0000000
N2   N   0.555377630651108   0.624398850660498   0.375000000000000   1.0000000
N2   N   0.385916840356591   0.101118534554992   0.375000000000000   1.0000000
N2   N   0.890808852295253   0.612071092814298   0.375000000000000   1.0000000
N2   N   0.723008424333244   0.109949338139269   0.375000000000000   1.0000000
N2   N   0.055300333860048   0.777649593644781   0.875000000000000   1.0000000
N2   N   0.388619914503690   0.777648210290429   0.875000000000000   1.0000000
N2   N   0.221954993116113   0.277644163224725   0.875000000000000   1.0000000
N2   N   0.721954427863664   0.777622038660702   0.875000000000000   1.0000000
N2   N   0.555260383913715   0.277622062493596   0.875000000000000   1.0000000
N2   N   0.888623989692487   0.277652923092751   0.875000000000000   1.0000000
N2   N   0.220411546414441   0.776872439873888   0.375000000000000   1.0000000
N2   N   0.054648374108264   0.277488789268031   0.375000000000000   1.0000000
N2   N   0.372166111563790   0.247679928443489   0.375000000000000   1.0000000
N2   N   0.555068100361908   0.783706948512806   0.375000000000000   1.0000000
N2   N   0.893402599894587   0.782283874800641   0.375000000000000   1.0000000
N2   N   0.724406087153415   0.274609784291247   0.375000000000000   1.0000000
N2   N   0.055292313683147   0.944315430291765   0.875000000000000   1.0000000
N2   N   0.388619914503690   0.944305037546596   0.875000000000000   1.0000000
N2   N   0.221960293913950   0.444316628908133   0.875000000000000   1.0000000
N2   N   0.555301625460114   0.444317479396721   0.875000000000000   1.0000000
N2   N   0.721959434351746   0.944305670749383   0.875000000000000   1.0000000
N2   N   0.888635851396276   0.444325295489110   0.875000000000000   1.0000000
N2   N   0.054045808015435   0.444995413841190   0.375000000000000   1.0000000
N2   N   0.219755335039000   0.940432467301956   0.375000000000000   1.0000000
N2   N   0.555055385072101   0.944194359202715   0.375000000000000   1.0000000
N2   N   0.372166111563790   0.457819516453636   0.375000000000000   1.0000000
N2   N   0.889863533399382   0.946196196401932   0.375000000000000   1.0000000
N2   N   0.734065991310770   0.443042472647333   0.375000000000000   1.0000000
N2   N   0.221947832067701   0.610978827333288   0.875000000000000   1.0000000
N2   N   0.055292130180524   0.110976048279400   0.875000000000000   1.0000000
N2   N   0.555260383913715   0.610971654753454   0.875000000000000   1.0000000
N2   N   0.388614817249989   0.110959589997067   0.875000000000000   1.0000000
N2   N   0.888645735733315   0.610989534533329   0.875000000000000   1.0000000
N2   N   0.055097538991773   0.611418355515345   0.375000000000000   1.0000000
N2   N   0.721959434351746   0.110987096935699   0.875000000000000   1.0000000
N2   N   0.214172619814081   0.101033655700425   0.375000000000000   1.0000000
N2   N   0.385916840356591   0.618131639134942   0.375000000000000   1.0000000
N2   N   0.734065991310770   0.624356851996773   0.375000000000000   1.0000000
N2   N   0.555068100361908   0.104694485182437   0.375000000000000   1.0000000
N2   N   0.388614817249989   0.610988560586265   0.875000000000000   1.0000000
N2   N   0.889333923199993   0.111333628266668   0.375000000000000   1.0000000
N2   N   0.221956042137650   0.777644687735493   0.875000000000000   1.0000000
N2   N   0.055292130180524   0.277649415234460   0.875000000000000   1.0000000
N2   N   0.388612442198092   0.277647995838142   0.875000000000000   1.0000000
N2   N   0.555285328420026   0.777644751187360   0.875000000000000   1.0000000
N2   N   0.888635851396276   0.777643889240501   0.875000000000000   1.0000000
N2   N   0.721954427863664   0.277665722536298   0.875000000000000   1.0000000
N2   N   0.055097538991773   0.777012516809764   0.375000000000000   1.0000000
N2   N   0.386952834507930   0.779464090711938   0.375000000000000   1.0000000
N2   N   0.220400151819175   0.276866742576255   0.375000000000000   1.0000000
N2   N   0.724406087153415   0.783129636195504   0.375000000000000   1.0000000
N2   N   0.555377630651108   0.264312113323945   0.375000000000000   1.0000000
N2   N   0.889863533399382   0.277000670330785   0.375000000000000   1.0000000
N2   N   0.055292313683147   0.444310216724710   0.875000000000000   1.0000000
N2   N   0.221947832067701   0.944302338067749   0.875000000000000   1.0000000
N2   N   0.555288387861893   0.944310860597611   0.875000000000000   1.0000000
N2   N   0.388612442198092   0.444297779693286   0.875000000000000   1.0000000
N2   N   0.888623989692487   0.944304399933071   0.875000000000000   1.0000000
N2   N   0.054045808015435   0.942383727507573   0.375000000000000   1.0000000
N2   N   0.721976971188299   0.444339668240661   0.875000000000000   1.0000000
N2   N   0.386952834507930   0.940822077129328   0.375000000000000   1.0000000
N2   N   0.214172619814081   0.446472297446992   0.375000000000000   1.0000000
N2   N   0.219755335039000   0.612656201070379   0.375000000000000   1.0000000
N2   N   0.723008424333244   0.946392419527310   0.375000000000000   1.0000000
N2   N   0.893402599894587   0.444452058427283   0.375000000000000   1.0000000
N2   N   0.055300333860048   0.610984073548601   0.875000000000000   1.0000000
N2   N   0.221960293913950   0.110976998339153   0.875000000000000   1.0000000
N2   N   0.721976971188299   0.610970636280973   0.875000000000000   1.0000000
N2   N   0.555285328420026   0.110973910566001   0.875000000000000   1.0000000
N2   N   0.888629473967518   0.110981403650430   0.875000000000000   1.0000000
B2   B   0.106059304931743   0.051005133537131   0.375000000000000   1.0000000
B2   B   0.625846418784670   0.587298728274585   0.375000000000000   1.0000000
B2   B   0.443656999139508   0.049714768768299   0.375000000000000   1.0000000
B2   B   0.945228617496400   0.555420365642229   0.375000000000000   1.0000000
B2   B   0.778839938811049   0.056086636072193   0.375000000000000   1.0000000
B2   B   0.110810938084156   0.722072135708743   0.875000000000000   1.0000000
B2   B   0.444142310134328   0.722055476924303   0.875000000000000   1.0000000
B2   B   0.277578570916092   0.222142593602855   0.875000000000000   1.0000000
B2   B   0.777444422382299   0.722004736699417   0.875000000000000   1.0000000
B2   B   0.610828835300117   0.222136667058589   0.875000000000000   1.0000000
B2   B   0.944193190234612   0.222114333059519   0.875000000000000   1.0000000
B2   B   0.276220713445265   0.722941948619380   0.375000000000000   1.0000000
B2   B   0.109529264477552   0.221431298905441   0.375000000000000   1.0000000
B2   B   0.442214979317013   0.209910668918944   0.375000000000000   1.0000000
B2   B   0.612532923652866   0.732299008546611   0.375000000000000   1.0000000
B2   B   0.945228617496400   0.723141585187506   0.375000000000000   1.0000000
B2   B   0.779310904233914   0.220273934887692   0.375000000000000   1.0000000
B2   B   0.110822007326454   0.888740044393774   0.875000000000000   1.0000000
B2   B   0.444148702026279   0.888741017679804   0.875000000000000   1.0000000
B2   B   0.277578570916092   0.388769310646565   0.875000000000000   1.0000000
B2   B   0.610831269033808   0.388781391945874   0.875000000000000   1.0000000
B2   B   0.777473928450741   0.888699855897582   0.875000000000000   1.0000000
B2   B   0.944185397161849   0.388773709346555   0.875000000000000   1.0000000
B2   B   0.106059304931743   0.388387504727940   0.375000000000000   1.0000000
B2   B   0.276220713445265   0.886612098159214   0.375000000000000   1.0000000
B2   B   0.612139912362202   0.892292529945857   0.375000000000000   1.0000000
B2   B   0.945395159136021   0.890856545377379   0.375000000000000   1.0000000
B2   B   0.785009564787265   0.386589004954981   0.375000000000000   1.0000000
B2   B   0.277540763330545   0.555441181778824   0.875000000000000   1.0000000
B2   B   0.110833626935494   0.055413986929980   0.875000000000000   1.0000000
B2   B   0.610831269033808   0.555383210421262   0.875000000000000   1.0000000
B2   B   0.444142310134328   0.055420166543361   0.875000000000000   1.0000000
B2   B   0.944179766441770   0.555449344216656   0.875000000000000   1.0000000
B2   B   0.109437596743536   0.555801425421866   0.375000000000000   1.0000000
B2   B   0.777479860929052   0.055406597131194   0.875000000000000   1.0000000
B2   B   0.274594024905597   0.049729491717357   0.375000000000000   1.0000000
B2   B   0.442214979317013   0.565637643731404   0.375000000000000   1.0000000
B2   B   0.780845388740983   0.557089361037159   0.375000000000000   1.0000000
B2   B   0.612139912362202   0.053180715749674   0.375000000000000   1.0000000
B2   B   0.444175887674224   0.555397822705585   0.875000000000000   1.0000000
B2   B   0.944562184515306   0.056246828074309   0.375000000000000   1.0000000
B2   B   0.277524892003402   0.722084607815182   0.875000000000000   1.0000000
B2   B   0.110851828421516   0.222092580877423   0.875000000000000   1.0000000
B2   B   0.444175887674224   0.222111398301975   0.875000000000000   1.0000000
B2   B   0.610828835300117   0.722025501574856   0.875000000000000   1.0000000
B2   B   0.944179766441770   0.722063755558450   0.875000000000000   1.0000000
B2   B   0.777473928450741   0.222107405886487   0.875000000000000   1.0000000
B2   B   0.110065909985854   0.721699621659592   0.375000000000000   1.0000000
B2   B   0.443656999139508   0.727275563704544   0.375000000000000   1.0000000
B2   B   0.266304890761315   0.208875347427134   0.375000000000000   1.0000000
B2   B   0.785009564787265   0.731753893165611   0.375000000000000   1.0000000
B2   B   0.612532923652866   0.213567248439583   0.375000000000000   1.0000000
B2   B   0.944562184515306   0.221648689774332   0.375000000000000   1.0000000
B2   B   0.110833626935494   0.388752973338843   0.875000000000000   1.0000000
B2   B   0.277524892003402   0.888773617521549   0.875000000000000   1.0000000
B2   B   0.610845011169572   0.888746047870680   0.875000000000000   1.0000000
B2   B   0.444218689630228   0.388776011481778   0.875000000000000   1.0000000
B2   B   0.944185397161849   0.888745021148623   0.875000000000000   1.0000000
B2   B   0.109437596743536   0.886969504654999   0.375000000000000   1.0000000
B2   B   0.777444422382299   0.388773019016210   0.875000000000000   1.0000000
B2   B   0.443920616594718   0.888626974964024   0.375000000000000   1.0000000
B2   B   0.266304890761315   0.390762876667510   0.375000000000000   1.0000000
B2   B   0.274594024905597   0.558197866521575   0.375000000000000   1.0000000
B2   B   0.625846418784670   0.371881023843415   0.375000000000000   1.0000000
B2   B   0.779310904233914   0.892370302679551   0.375000000000000   1.0000000
B2   B   0.945395159136021   0.387871947091970   0.375000000000000   1.0000000
B2   B   0.110822007326454   0.555415296266009   0.875000000000000   1.0000000
B2   B   0.277540763330545   0.055432914885058   0.875000000000000   1.0000000
B2   B   0.777450377230395   0.555391855281865   0.875000000000000   1.0000000
B2   B   0.610845011169572   0.055432296632221   0.875000000000000   1.0000000
B2   B   0.944193190234612   0.055412190508428   0.875000000000000   1.0000000
B2   B   0.055893657997654   0.111278102573667   0.125137254163121   1.0000000
B2   B   0.556077913397892   0.611261063744785   0.123790306014210   1.0000000
B2   B   0.389276918678442   0.111393877821058   0.125108486487952   1.0000000
B2   B   0.889055218325916   0.611194275829629   0.125164433460430   1.0000000
B2   B   0.722554379247199   0.111247881964220   0.124997246047133   1.0000000
B2   B   0.055785366996780   0.777897303693499   0.624906616933845   1.0000000
B2   B   0.389210455950931   0.777901406118853   0.624901270520107   1.0000000
B2   B   0.222690848108881   0.278012090721108   0.625081858821480   1.0000000
B2   B   0.722529928549461   0.777966601659518   0.625177328212846   1.0000000
B2   B   0.556077913397892   0.278150182986443   0.626209693985790   1.0000000
B2   B   0.889263776316699   0.277928565647440   0.624994439942660   1.0000000
B2   B   0.222569250008483   0.777951291670909   0.125027580223357   1.0000000
B2   B   0.055893657997654   0.277948888757322   0.125137254163121   1.0000000
B2   B   0.389387370854820   0.278149679579162   0.123373526573368   1.0000000
B2   B   0.555966989450068   0.777958449323065   0.125029428970985   1.0000000
B2   B   0.889166827848185   0.777952088551173   0.125056211894925   1.0000000
B2   B   0.722529928549461   0.277896660223279   0.124822671787153   1.0000000
B2   B   0.055852205046568   0.944629251979111   0.624890280593810   1.0000000
B2   B   0.389210455950931   0.944642383165413   0.624901270520107   1.0000000
B2   B   0.222657263673825   0.444630222635130   0.624907320374353   1.0000000
B2   B   0.556045746794703   0.444689540064016   0.625984085365493   1.0000000
B2   B   0.722554379247199   0.944639830616315   0.625002753952867   1.0000000
B2   B   0.889166827848185   0.444548072630348   0.624943788105075   1.0000000
B2   B   0.055852205046568   0.444556286400785   0.125109719406189   1.0000000
B2   B   0.222612093969935   0.944670685708398   0.125116233141899   1.0000000
B2   B   0.555943059305197   0.944638196319263   0.125039849453324   1.0000000
B2   B   0.389387370854820   0.444571024608994   0.123373526573368   1.0000000
B2   B   0.889263776316699   0.944668544002594   0.125005560057340   1.0000000
B2   B   0.722326130721523   0.444440182845097   0.124050403741641   1.0000000
B2   B   0.222612093969935   0.611274741594872   0.624883766858102   1.0000000
B2   B   0.055893657997654   0.111278102573667   0.624862745836880   1.0000000
B2   B   0.556077913397892   0.611261063744785   0.626209693985790   1.0000000
B2   B   0.389276918678442   0.111393877821058   0.624891513512049   1.0000000
B2   B   0.889055218325916   0.611194275829629   0.624835566539571   1.0000000
B2   B   0.055785366996780   0.611221396636618   0.125093383066154   1.0000000
B2   B   0.722554379247199   0.111247881964220   0.625002753952867   1.0000000
B2   B   0.222657263673825   0.111360374372031   0.125092679625646   1.0000000
B2   B   0.389276918678442   0.611216374190727   0.125108486487952   1.0000000
B2   B   0.722326130721523   0.611219281209762   0.124050403741641   1.0000000
B2   B   0.555966989450068   0.111341873460338   0.125029428970985   1.0000000
B2   B   0.389276918678442   0.611216374190727   0.624891513512049   1.0000000
B2   B   0.889276650340583   0.111304991836963   0.124974665188491   1.0000000
B2   B   0.222569250008483   0.777951291670909   0.624972419776644   1.0000000
B2   B   0.055893657997654   0.277948888757322   0.624862745836880   1.0000000
B2   B   0.389387370854820   0.278149679579162   0.626626473426632   1.0000000
B2   B   0.555966989450068   0.777958449323065   0.624970571029015   1.0000000
B2   B   0.889166827848185   0.777952088551173   0.624943788105075   1.0000000
B2   B   0.722529928549461   0.277896660223279   0.625177328212846   1.0000000
B2   B   0.055785366996780   0.777897303693499   0.125093383066154   1.0000000
B2   B   0.389210455950931   0.777901406118853   0.125098729479892   1.0000000
B2   B   0.222690848108881   0.278012090721108   0.124918141178520   1.0000000
B2   B   0.722529928549461   0.777966601659518   0.124822671787153   1.0000000
B2   B   0.556077913397892   0.278150182986443   0.123790306014210   1.0000000
B2   B   0.889263776316699   0.277928565647440   0.125005560057340   1.0000000
B2   B   0.055852205046568   0.444556286400785   0.624890280593810   1.0000000
B2   B   0.222612093969935   0.944670685708398   0.624883766858102   1.0000000
B2   B   0.555943059305197   0.944638196319263   0.624960150546676   1.0000000
B2   B   0.389387370854820   0.444571024608994   0.626626473426632   1.0000000
B2   B   0.889263776316699   0.944668544002594   0.624994439942660   1.0000000
B2   B   0.055852205046568   0.944629251979111   0.125109719406189   1.0000000
B2   B   0.722326130721523   0.444440182845097   0.625949596258359   1.0000000
B2   B   0.389210455950931   0.944642383165413   0.125098729479892   1.0000000
B2   B   0.222657263673825   0.444630222635130   0.125092679625646   1.0000000
B2   B   0.222612093969935   0.611274741594872   0.125116233141899   1.0000000
B2   B   0.556045746794703   0.444689540064016   0.124015914634507   1.0000000
B2   B   0.722554379247199   0.944639830616315   0.124997246047133   1.0000000
B2   B   0.889166827848185   0.444548072630348   0.125056211894925   1.0000000
B2   B   0.055785366996780   0.611221396636618   0.624906616933845   1.0000000
B2   B   0.222657263673825   0.111360374372031   0.624907320374353   1.0000000
B2   B   0.722326130721523   0.611219281209762   0.625949596258359   1.0000000
B2   B   0.555966989450068   0.111341873460338   0.624970571029015   1.0000000
B2   B   0.889276650340583   0.111304991836963   0.625025334811508   1.0000000


