data_1
_audit_creation_method   'vasp2cif'
_cell_length_a    17.52789999999977
_cell_length_b    17.52789999999977
_cell_length_c    15.0
_cell_angle_alpha    90.0
_cell_angle_beta    90.0
_cell_angle_gamma    119.99999999999916

_symmetry_space_group_name_H-M    'P 1'
loop_
_atom_site_label
_atom_site_type_symbol
_atom_site_fract_x
_atom_site_fract_y
_atom_site_fract_z
_atom_site_occupancy
B2   B   0.903985170758254   0.951629198462841   0.109575198449526   1.0000000
B2   B   0.905104009908182   0.094898011287814   0.110407506036648   1.0000000
B2   B   0.905555633184078   0.237808822636800   0.111031079239940   1.0000000
B2   B   0.905596248099746   0.380689582374830   0.111457738276112   1.0000000
B2   B   0.905185614259299   0.523580426366037   0.111022775150545   1.0000000
B2   B   0.903784249385977   0.666250028259851   0.109914094389624   1.0000000
B2   B   0.903160027104905   0.808520747563285   0.109799927132508   1.0000000
B2   B   0.047280262435341   0.952721758760663   0.109754383721664   1.0000000
B2   B   0.048372822733162   0.096016850437729   0.109575198449526   1.0000000
B2   B   0.048769412640884   0.238683939560239   0.109877482441489   1.0000000
B2   B   0.048441962299007   0.381279646809767   0.110342894731431   1.0000000
B2   B   0.047653313181978   0.524106697172364   0.110835138134792   1.0000000
B2   B   0.046907928774539   0.666956551005144   0.110378865356881   1.0000000
B2   B   0.046828627029575   0.809744471843199   0.109935001991486   1.0000000
B2   B   0.190257549352811   0.953173394166428   0.109935001991486   1.0000000
B2   B   0.191481273632720   0.096841994091091   0.109799927132508   1.0000000
B2   B   0.192882921378384   0.240587311475927   0.109921440575085   1.0000000
B2   B   0.191964608224663   0.382465578418518   0.109836899421271   1.0000000
B2   B   0.190238138799513   0.524764782813097   0.109278032920393   1.0000000
B2   B   0.189483266612505   0.667477542684633   0.111100844860555   1.0000000
B2   B   0.189760023675121   0.810241997520882   0.110568166946354   1.0000000
B2   B   0.333045470191862   0.953094092421464   0.110378865356881   1.0000000
B2   B   0.333751992937131   0.096217771810028   0.109914094389624   1.0000000
B2   B   0.335893493935907   0.241130042713981   0.110981223176973   1.0000000
B2   B   0.337579121805711   0.385728913770364   0.118843504975882   1.0000000
B2   B   0.333009790732938   0.526688004389065   0.112782953312020   1.0000000
B2   B   0.331764056311729   0.668237964885270   0.110665886729065   1.0000000
B2   B   0.332524478512366   0.810518754583499   0.111100844860555   1.0000000
B2   B   0.475895324024634   0.952348708014032   0.110835138134792   1.0000000
B2   B   0.476421594830961   0.094816406936696   0.111022775150545   1.0000000
B2   B   0.477125895877266   0.237249666460421   0.111296516334836   1.0000000
B2   B   0.480396881654474   0.380928305990330   0.101030738833413   1.0000000
B2   B   0.473314016807934   0.666992230464059   0.112782953312020   1.0000000
B2   B   0.475237238383901   0.809763882396491   0.109278032920393   1.0000000
B2   B   0.618722374386239   0.951560058896988   0.110342894731431   1.0000000
B2   B   0.619312438821175   0.094405773096250   0.111457738276112   1.0000000
B2   B   0.619854760611025   0.236969431195094   0.111779617990739   1.0000000
B2   B   0.620650898148805   0.379351123047198   0.109768726320276   1.0000000
B2   B   0.619073715205666   0.519605139542523   0.101030738833413   1.0000000
B2   B   0.614273107425639   0.662422899391294   0.118843504975882   1.0000000
B2   B   0.617536442777486   0.808037412971342   0.109836899421271   1.0000000
B2   B   0.761318081635763   0.951232608555107   0.109877482441489   1.0000000
B2   B   0.762193198559198   0.094446388011919   0.111031079239940   1.0000000
B2   B   0.762663653710287   0.237338367485724   0.111783926839001   1.0000000
B2   B   0.763032590000911   0.380147260584978   0.111779617990739   1.0000000
B2   B   0.762752354735580   0.522876125319733   0.111296516334836   1.0000000
B2   B   0.758871978482023   0.664108527261092   0.110981223176973   1.0000000
B2   B   0.759414709720075   0.807119099817627   0.109921440575085   1.0000000
N2   N   0.951597002560553   0.904147609320356   0.109617282419186   1.0000000
N2   N   0.952640082939004   0.047361318979002   0.109990266162453   1.0000000
N2   N   0.953261821720084   0.190377115443141   0.110536010923593   1.0000000
N2   N   0.953204664609950   0.333134761228113   0.111060354579173   1.0000000
N2   N   0.952691302474117   0.475981942501810   0.111127636957500   1.0000000
N2   N   0.951757238189874   0.618917649776496   0.110171905339964   1.0000000
N2   N   0.951378363297077   0.761577217341332   0.109673737931105   1.0000000
N2   N   0.094838527466462   0.905162874451530   0.109973571132533   1.0000000
N2   N   0.095853792597642   0.048404399357454   0.109617282419186   1.0000000
N2   N   0.097007908024432   0.191781039730124   0.109163981822304   1.0000000
N2   N   0.096519367535083   0.334048625180082   0.109747173884949   1.0000000
N2   N   0.095278910155268   0.476542258183514   0.110318526378739   1.0000000
N2   N   0.094491536937717   0.619412971163565   0.110804588337487   1.0000000
N2   N   0.094479978970289   0.762312282391186   0.110204050610850   1.0000000
N2   N   0.237689119526805   0.905521422947709   0.110204050610850   1.0000000
N2   N   0.238424184576680   0.048623038620922   0.109673737931105   1.0000000
N2   N   0.240227281258842   0.192752231968512   0.110299944598785   1.0000000
N2   N   0.241589670692683   0.336607936544249   0.111758929156159   1.0000000
N2   N   0.238263540531606   0.477545807051410   0.107744376869134   1.0000000
N2   N   0.236913856272961   0.619958166085446   0.110792669708114   1.0000000
N2   N   0.237279726102102   0.762721675815903   0.111188534462206   1.0000000
N2   N   0.380588430754428   0.905509864980290   0.110804588337487   1.0000000
N2   N   0.381083752141495   0.048244163728132   0.110171905339964   1.0000000
N2   N   0.381955696856755   0.191633317980990   0.110167784517397   1.0000000
N2   N   0.385240988289405   0.337729038797869   0.111541255677989   1.0000000
N2   N   0.383114910748708   0.482499449023924   0.128021130025193   1.0000000
N2   N   0.378982168167060   0.621019233750938   0.111311960101234   1.0000000
N2   N   0.380043235832553   0.763087545645043   0.110792669708114   1.0000000
N2   N   0.523459143733491   0.904722491762730   0.110318526378739   1.0000000
N2   N   0.524019459415188   0.047310099443889   0.111127636957500   1.0000000
N2   N   0.524570009016306   0.189721396757312   0.111683559087431   1.0000000
N2   N   0.525542730671678   0.331848145543189   0.109649232500015   1.0000000
N2   N   0.517501952893066   0.616886491169283   0.128021130025193   1.0000000
N2   N   0.522455594865588   0.761737861386392   0.107744376869134   1.0000000
N2   N   0.665952776736914   0.903482034382917   0.109747173884949   1.0000000
N2   N   0.666866640688878   0.046796737308055   0.111060354579173   1.0000000
N2   N   0.667408242066258   0.189530752397268   0.111921353496271   1.0000000
N2   N   0.667963202840048   0.332038199076947   0.111441119475966   1.0000000
N2   N   0.668153256373809   0.474458671245326   0.109649232500015   1.0000000
N2   N   0.662272363119129   0.614760413628601   0.111541255677989   1.0000000
N2   N   0.663393465372754   0.758411731225323   0.111758929156159   1.0000000
N2   N   0.808220362187873   0.902993493893573   0.109163981822304   1.0000000
N2   N   0.809624286474843   0.046739580197915   0.110536010923593   1.0000000
N2   N   0.810217604147544   0.189783797770456   0.111319092053206   1.0000000
N2   N   0.810470649520745   0.332593159850737   0.111921353496271   1.0000000
N2   N   0.810280005160686   0.475431392900696   0.111683559087431   1.0000000
N2   N   0.808368083937001   0.618045705061250   0.110167784517397   1.0000000
N2   N   0.807249169949487   0.759774120659158   0.110299944598785   1.0000000
C2   C   0.470065104589762   0.529936916607228   0.159578103525109   1.0000000
O2   O   0.531309979604984   0.468691422312020   0.078153851460624   1.0000000


