data_1
_audit_creation_method   'vasp2cif'
_cell_length_a    14.93631414619966
_cell_length_b    14.936314146199727
_cell_length_c    13.341276283792837
_cell_angle_alpha    90.0
_cell_angle_beta    90.0
_cell_angle_gamma    119.99999999999984

_symmetry_space_group_name_H-M    'P 1'
loop_
_atom_site_label
_atom_site_type_symbol
_atom_site_fract_x
_atom_site_fract_y
_atom_site_fract_z
_atom_site_occupancy
As2   As   0.444444444444443   0.388888888888886   0.375000000000000   1.0000000
N2   N   0.111123089912062   0.055539619477249   0.124365094124162   1.0000000
N2   N   0.611114304786411   0.555524744604254   0.126200098444985   1.0000000
N2   N   0.444416529565147   0.055539619477249   0.124365094124162   1.0000000
N2   N   0.944462551884835   0.555572306180291   0.124837305001493   1.0000000
N2   N   0.777777777777779   0.055555555555557   0.124681097427459   1.0000000
N2   N   0.111111111111114   0.722222222222221   0.624895952354047   1.0000000
N2   N   0.444416529565147   0.722210243421322   0.625634905875944   1.0000000
N2   N   0.277808588729164   0.222219028546936   0.623799901554860   1.0000000
N2   N   0.777793713856182   0.722210243421322   0.625634905875944   1.0000000
N2   N   0.611084938673836   0.222248394659692   0.625633728525480   1.0000000
N2   N   0.944468109794278   0.222244091424249   0.625497247425952   1.0000000
N2   N   0.277761027153019   0.722223579038066   0.124837305001494   1.0000000
N2   N   0.111163455985933   0.222248394659692   0.124366271474424   1.0000000
N2   N   0.444410439817891   0.222219028546940   0.126200098444989   1.0000000
N2   N   0.611084938673836   0.722169877347355   0.124366271474424   1.0000000
N2   N   0.944462551884835   0.722223579038066   0.124837305001494   1.0000000
N2   N   0.777775981629953   0.222244091424249   0.124502752573928   1.0000000
N2   N   0.111109754295465   0.888870781448494   0.625162694998448   1.0000000
N2   N   0.444420136601288   0.888876734967220   0.625395243500907   1.0000000
N2   N   0.277808588729164   0.388922893515438   0.623799901554860   1.0000000
N2   N   0.611114304786411   0.388922893515438   0.623799901554860   1.0000000
N2   N   0.777775981629953   0.888865223539051   0.625497247425952   1.0000000
N2   N   0.944456598366108   0.388913196732035   0.625395243500907   1.0000000
N2   N   0.111123089912062   0.388916803768182   0.124365094124161   1.0000000
N2   N   0.277761027153019   0.888870781448494   0.124837305001494   1.0000000
N2   N   0.611089241908924   0.888865223539050   0.124502752573930   1.0000000
N2   N   0.444444444444443   0.388888888888886   0.135097138819595   1.0000000
N2   N   0.944456598366109   0.888876734967220   0.124604756499443   1.0000000
N2   N   0.777793713856182   0.388916803768182   0.124365094124161   1.0000000
N2   N   0.277764012670948   0.555569320662345   0.625248885287955   1.0000000
N2   N   0.111123089912062   0.055539619477249   0.625634905875945   1.0000000
N2   N   0.611114304786411   0.555524744604254   0.623799901554860   1.0000000
N2   N   0.444416529565147   0.055539619477249   0.625634905875944   1.0000000
N2   N   0.944462551884835   0.555572306180291   0.625162694998453   1.0000000
N2   N   0.111109754295465   0.555572306180291   0.124837305001494   1.0000000
N2   N   0.777777777777779   0.055555555555557   0.625318902572661   1.0000000
N2   N   0.277764012670944   0.055528025341885   0.124751114712031   1.0000000
N2   N   0.444410439817891   0.555524744604254   0.126200098444983   1.0000000
N2   N   0.777805307991439   0.555569320662345   0.124751114712031   1.0000000
N2   N   0.611089241908924   0.055557351703305   0.124502752573928   1.0000000
N2   N   0.444410439817891   0.555524744604254   0.623799901554860   1.0000000
N2   N   0.944468109794277   0.055557351703304   0.124502752573928   1.0000000
N2   N   0.277761027153019   0.722223579038066   0.625162694998448   1.0000000
N2   N   0.111163455985933   0.222248394659692   0.625633728525480   1.0000000
N2   N   0.444410439817891   0.222219028546936   0.623799901554860   1.0000000
N2   N   0.611084938673836   0.722169877347355   0.625633728525480   1.0000000
N2   N   0.944462551884835   0.722223579038066   0.625162694998453   1.0000000
N2   N   0.777775981629953   0.222244091424249   0.625497247425952   1.0000000
N2   N   0.111111111111114   0.722222222222221   0.125104047645839   1.0000000
N2   N   0.444416529565147   0.722210243421322   0.124365094124162   1.0000000
N2   N   0.277808588729164   0.222219028546940   0.126200098444983   1.0000000
N2   N   0.777793713856182   0.722210243421322   0.124365094124162   1.0000000
N2   N   0.611084938673836   0.222248394659692   0.124366271474423   1.0000000
N2   N   0.944468109794277   0.222244091424249   0.124502752573927   1.0000000
N2   N   0.111123089912061   0.388916803768182   0.625634905875945   1.0000000
N2   N   0.277761027153019   0.888870781448494   0.625162694998453   1.0000000
N2   N   0.611089241908924   0.888865223539051   0.625497247425952   1.0000000
N2   N   0.444444444444443   0.388888888888886   0.614902861180373   1.0000000
N2   N   0.944456598366108   0.888876734967220   0.625395243500907   1.0000000
N2   N   0.111109754295465   0.888870781448494   0.124837305001494   1.0000000
N2   N   0.777793713856182   0.388916803768182   0.625634905875944   1.0000000
N2   N   0.444420136601294   0.888876734967220   0.124604756499443   1.0000000
N2   N   0.277808588729163   0.388922893515438   0.126200098444994   1.0000000
N2   N   0.277764012670948   0.555569320662345   0.124751114712030   1.0000000
N2   N   0.611114304786411   0.388922893515438   0.126200098444986   1.0000000
N2   N   0.777775981629953   0.888865223539050   0.124502752573928   1.0000000
N2   N   0.944456598366108   0.388913196732035   0.124604756499443   1.0000000
N2   N   0.111109754295464   0.555572306180291   0.625162694998453   1.0000000
N2   N   0.277764012670944   0.055528025341885   0.625248885287955   1.0000000
N2   N   0.777805307991439   0.555569320662345   0.625248885287955   1.0000000
N2   N   0.611089241908924   0.055557351703305   0.625497247425952   1.0000000
N2   N   0.944468109794278   0.055557351703305   0.625497247425952   1.0000000
N2   N   0.054557684979262   0.110433240099070   0.375000000000000   1.0000000
N2   N   0.556193669346794   0.612387338693997   0.375000000000000   1.0000000
N2   N   0.388102584469056   0.106651496136119   0.375000000000000   1.0000000
N2   N   0.890336639547169   0.611834986440095   0.375000000000000   1.0000000
N2   N   0.722396183455613   0.110937149877616   0.375000000000000   1.0000000
N2   N   0.055551788537082   0.777781544796389   0.875000000000000   1.0000000
N2   N   0.388899557861151   0.777781980065574   0.875000000000000   1.0000000
N2   N   0.222224657078009   0.277778995205704   0.875000000000000   1.0000000
N2   N   0.722222391101706   0.777785413058007   0.875000000000000   1.0000000
N2   N   0.555554338127511   0.277778995205704   0.875000000000000   1.0000000
N2   N   0.888885881288324   0.277771762576332   0.875000000000000   1.0000000
N2   N   0.221967951332815   0.777650642332903   0.375000000000000   1.0000000
N2   N   0.054557684979262   0.277457778213453   0.375000000000000   1.0000000
N2   N   0.380575978572488   0.261151957144824   0.375000000000000   1.0000000
N2   N   0.555875555119695   0.778775648354083   0.375000000000000   1.0000000
N2   N   0.890130581245907   0.778833487011815   0.375000000000000   1.0000000
N2   N   0.722900093234188   0.277457778213451   0.375000000000000   1.0000000
N2   N   0.055551353267768   0.944450911128958   0.875000000000000   1.0000000
N2   N   0.388899557861145   0.944450911128958   0.875000000000000   1.0000000
N2   N   0.222225989336584   0.444432250029759   0.875000000000000   1.0000000
N2   N   0.555530579690030   0.444431956511679   0.875000000000000   1.0000000
N2   N   0.722224455658430   0.944448911316683   0.875000000000000   1.0000000
N2   N   0.888882422204371   0.444433775472177   0.875000000000000   1.0000000
N2   N   0.054499846321330   0.444630427567130   0.375000000000000   1.0000000
N2   N   0.221498346893092   0.942996693786159   0.375000000000000   1.0000000
N2   N   0.555803652963243   0.944568493148197   0.375000000000000   1.0000000
N2   N   0.380575978572488   0.452757354760841   0.375000000000000   1.0000000
N2   N   0.888764840185132   0.944568493148197   0.375000000000000   1.0000000
N2   N   0.726681837197125   0.445230748864271   0.375000000000000   1.0000000
N2   N   0.222229401400097   0.611103931933295   0.875000000000000   1.0000000
N2   N   0.055547920275386   0.111110942231636   0.875000000000000   1.0000000
N2   N   0.555554338127511   0.611108676255264   0.875000000000000   1.0000000
N2   N   0.388901083303570   0.111127072640101   0.875000000000000   1.0000000
N2   N   0.888874530532982   0.611103931933295   0.875000000000000   1.0000000
N2   N   0.055682691000271   0.611365382000454   0.375000000000000   1.0000000
N2   N   0.722224455658430   0.111108877675019   0.875000000000000   1.0000000
N2   N   0.218548911667021   0.106651496136115   0.375000000000000   1.0000000
N2   N   0.388102584469059   0.614784421666201   0.375000000000000   1.0000000
N2   N   0.726681837197125   0.614784421666201   0.375000000000000   1.0000000
N2   N   0.555875555119695   0.110433240099070   0.375000000000000   1.0000000
N2   N   0.388901083303570   0.611107343996891   0.875000000000000   1.0000000
N2   N   0.888540966421757   0.110937149877616   0.375000000000000   1.0000000
N2   N   0.222229756259191   0.777781544796389   0.875000000000000   1.0000000
N2   N   0.055547920275387   0.277770311377016   0.875000000000000   1.0000000
N2   N   0.388901376821649   0.277802753643299   0.875000000000000   1.0000000
N2   N   0.555563021956296   0.777785413058007   0.875000000000000   1.0000000
N2   N   0.888882422204371   0.777781980065574   0.875000000000000   1.0000000
N2   N   0.722222391101706   0.277770311377016   0.875000000000000   1.0000000
N2   N   0.055682691000271   0.777650642332903   0.375000000000000   1.0000000
N2   N   0.388702905766198   0.778833487011815   0.375000000000000   1.0000000
N2   N   0.220945994639455   0.277139663986337   0.375000000000000   1.0000000
N2   N   0.722900093234188   0.778775648354083   0.375000000000000   1.0000000
N2   N   0.556193669346794   0.277139663986337   0.375000000000000   1.0000000
N2   N   0.888764840185132   0.277529680370179   0.375000000000000   1.0000000
N2   N   0.055551353267768   0.444433775472177   0.875000000000000   1.0000000
N2   N   0.222229401400097   0.944458802800346   0.875000000000000   1.0000000
N2   N   0.555561570757039   0.944447452045005   0.875000000000000   1.0000000
N2   N   0.388901376821649   0.444431956511679   0.875000000000000   1.0000000
N2   N   0.888885881288324   0.944447452045005   0.875000000000000   1.0000000
N2   N   0.054499846321330   0.943202752087422   0.375000000000000   1.0000000
N2   N   0.722206260693277   0.444432250029763   0.875000000000000   1.0000000
N2   N   0.388702905766198   0.943202752087422   0.375000000000000   1.0000000
N2   N   0.218548911667021   0.445230748864271   0.375000000000000   1.0000000
N2   N   0.221498346893092   0.611834986440095   0.375000000000000   1.0000000
N2   N   0.572181376188353   0.452757354760841   0.375000000000000   1.0000000
N2   N   0.722396183455613   0.944792366911572   0.375000000000000   1.0000000
N2   N   0.890130581245907   0.444630427567130   0.375000000000000   1.0000000
N2   N   0.055551788537082   0.611103577074133   0.875000000000000   1.0000000
N2   N   0.222225989336584   0.111127072640102   0.875000000000000   1.0000000
N2   N   0.722206260693277   0.611107343996891   0.875000000000000   1.0000000
N2   N   0.555563021956296   0.111110942231636   0.875000000000000   1.0000000
N2   N   0.888884422016646   0.111108877675019   0.875000000000000   1.0000000
B2   B   0.107575236333559   0.052599090953760   0.375000000000000   1.0000000
B2   B   0.619243790005334   0.565005940835421   0.375000000000000   1.0000000
B2   B   0.445023854620229   0.052599090953760   0.375000000000000   1.0000000
B2   B   0.945339416567182   0.555730508508834   0.375000000000000   1.0000000
B2   B   0.777777777777779   0.055555555555557   0.375000000000000   1.0000000
B2   B   0.111111111111114   0.722222222222221   0.875000000000000   1.0000000
B2   B   0.444472434423189   0.722300694109339   0.875000000000000   1.0000000
B2   B   0.277682541099808   0.222148064946275   0.875000000000000   1.0000000
B2   B   0.777828259686304   0.722300694109339   0.875000000000000   1.0000000
B2   B   0.611169467666856   0.222163865666334   0.875000000000000   1.0000000
B2   B   0.944388430558517   0.222185484079774   0.875000000000000   1.0000000
B2   B   0.277602824824636   0.722942241391705   0.375000000000000   1.0000000
B2   B   0.108101829446190   0.220717581389755   0.375000000000000   1.0000000
B2   B   0.445762150829961   0.214089543327920   0.375000000000000   1.0000000
B2   B   0.612615751943490   0.725231503887049   0.375000000000000   1.0000000
B2   B   0.945339416567182   0.722942241391704   0.375000000000000   1.0000000
B2   B   0.778153575702234   0.221529898662941   0.375000000000000   1.0000000
B2   B   0.111089512148103   0.888870875606609   0.875000000000000   1.0000000
B2   B   0.444471815010462   0.888902574172046   0.875000000000000   1.0000000
B2   B   0.277682541099808   0.388867809486857   0.875000000000000   1.0000000
B2   B   0.611185268387016   0.388867809486857   0.875000000000000   1.0000000
B2   B   0.777797053521238   0.888944902774812   0.875000000000000   1.0000000
B2   B   0.944430759161282   0.388861518322866   0.875000000000000   1.0000000
B2   B   0.107575236333559   0.388309478713099   0.375000000000000   1.0000000
B2   B   0.277602824824636   0.887993916766146   0.375000000000000   1.0000000
B2   B   0.611803434670254   0.889957010372622   0.375000000000000   1.0000000
B2   B   0.944194143868786   0.889139189464543   0.375000000000000   1.0000000
B2   B   0.780734242379577   0.388309478713099   0.375000000000000   1.0000000
B2   B   0.277747271308730   0.555586062024762   0.875000000000000   1.0000000
B2   B   0.111032639223983   0.055505073647116   0.875000000000000   1.0000000
B2   B   0.611185268387016   0.555650792233509   0.875000000000000   1.0000000
B2   B   0.444472434423189   0.055505073647117   0.875000000000000   1.0000000
B2   B   0.944462457726720   0.555551969874681   0.875000000000000   1.0000000
B2   B   0.110391091941548   0.555730508508834   0.375000000000000   1.0000000
B2   B   0.777777777777779   0.055555555555557   0.875000000000000   1.0000000
B2   B   0.276130206536657   0.052260413073423   0.375000000000000   1.0000000
B2   B   0.445762150829961   0.565005940835421   0.375000000000000   1.0000000
B2   B   0.781072920260037   0.557203126796815   0.375000000000000   1.0000000
B2   B   0.611803434670254   0.055179757631040   0.375000000000000   1.0000000
B2   B   0.444465523846471   0.555650792233509   0.875000000000000   1.0000000
B2   B   0.943376322960707   0.055179757631040   0.375000000000000   1.0000000
B2   B   0.277781363458599   0.722243821185206   0.875000000000000   1.0000000
B2   B   0.110994397999337   0.222163865666334   0.875000000000000   1.0000000
B2   B   0.444465523846471   0.222148064946275   0.875000000000000   1.0000000
B2   B   0.611169467666856   0.722338935333869   0.875000000000000   1.0000000
B2   B   0.944462457726720   0.722243821185206   0.875000000000000   1.0000000
B2   B   0.777797053521238   0.222185484079774   0.875000000000000   1.0000000
B2   B   0.111111111111114   0.722222222222221   0.375000000000000   1.0000000
B2   B   0.445023854620229   0.725758096999926   0.375000000000000   1.0000000
B2   B   0.268327392497953   0.214089543327919   0.375000000000000   1.0000000
B2   B   0.780734242379577   0.725758096999926   0.375000000000000   1.0000000
B2   B   0.612615751943490   0.220717581389755   0.375000000000000   1.0000000
B2   B   0.943376322960707   0.221529898662941   0.375000000000000   1.0000000
B2   B   0.111032639223983   0.388860898910140   0.875000000000000   1.0000000
B2   B   0.277781363458599   0.888870875606609   0.875000000000000   1.0000000
B2   B   0.611147849253351   0.888944902774812   0.875000000000000   1.0000000
B2   B   0.444444444444443   0.388888888888886   0.875000000000000   1.0000000
B2   B   0.944430759161283   0.888902574172046   0.875000000000000   1.0000000
B2   B   0.110391091941546   0.887993916766146   0.375000000000000   1.0000000
B2   B   0.777828259686304   0.388860898910140   0.875000000000000   1.0000000
B2   B   0.444945045595857   0.889139189464543   0.375000000000000   1.0000000
B2   B   0.268327392497959   0.387571182503368   0.375000000000000   1.0000000
B2   B   0.276130206536649   0.557203126796815   0.375000000000000   1.0000000
B2   B   0.619243790005334   0.387571182503368   0.375000000000000   1.0000000
B2   B   0.778153575702234   0.889957010372622   0.375000000000000   1.0000000
B2   B   0.944194143868786   0.388388287737472   0.375000000000000   1.0000000
B2   B   0.111089512148103   0.555551969874681   0.875000000000000   1.0000000
B2   B   0.277747271308730   0.055494542617317   0.875000000000000   1.0000000
B2   B   0.777838790715876   0.555586062024762   0.875000000000000   1.0000000
B2   B   0.611147849253351   0.055536279812085   0.875000000000000   1.0000000
B2   B   0.944388430558517   0.055536279812085   0.875000000000000   1.0000000
B2   B   0.055396968479856   0.110959779906733   0.123892636416357   1.0000000
B2   B   0.555721148529499   0.611442297059460   0.124694329322981   1.0000000
B2   B   0.388734222077348   0.110694160683326   0.124174601470356   1.0000000
B2   B   0.889138677510677   0.611236005421879   0.124331124961334   1.0000000
B2   B   0.722243310601384   0.111090022732058   0.124242518520591   1.0000000
B2   B   0.055588003894436   0.777745329438841   0.625399403476131   1.0000000
B2   B   0.388808574461799   0.777848864392314   0.625822851569240   1.0000000
B2   B   0.221891036273980   0.277612184803605   0.625305670677155   1.0000000
B2   B   0.722373553426680   0.777936364853342   0.626107363583693   1.0000000
B2   B   0.555721148529499   0.277612184803605   0.625305670677155   1.0000000
B2   B   0.888900078084699   0.277800156169400   0.625805281469471   1.0000000
B2   B   0.222157325544472   0.777745329438841   0.124600596523803   1.0000000
B2   B   0.055396968479854   0.277770521906323   0.123892636416361   1.0000000
B2   B   0.388550997428960   0.277101994858025   0.127473641788573   1.0000000
B2   B   0.555562811426762   0.777936364853342   0.123892636416361   1.0000000
B2   B   0.889040289930381   0.777848864392314   0.124177148430954   1.0000000
B2   B   0.722373553426680   0.277770521906323   0.123892636416357   1.0000000
B2   B   0.055484468940988   0.944293043402948   0.625822851569240   1.0000000
B2   B   0.388808574461799   0.944293043402948   0.625822851569240   1.0000000
B2   B   0.221959938605841   0.444599111255981   0.625825398529664   1.0000000
B2   B   0.556231338475409   0.444782335904369   0.622526358211486   1.0000000
B2   B   0.722243310601384   0.944486621202396   0.625757481479481   1.0000000
B2   B   0.889040289930381   0.444524758871530   0.625822851569240   1.0000000
B2   B   0.055484468940981   0.444524758871530   0.124177148430955   1.0000000
B2   B   0.222097327911462   0.944194655822654   0.124331124961334   1.0000000
B2   B   0.555533177163878   0.944433255248630   0.124194718530636   1.0000000
B2   B   0.388550997428960   0.444782335904369   0.127473641788572   1.0000000
B2   B   0.888900078084699   0.944433255248630   0.124194718530636   1.0000000
B2   B   0.722639172650071   0.444599111255981   0.124174601470356   1.0000000
B2   B   0.222097327911460   0.611236005421879   0.625668875038775   1.0000000
B2   B   0.055396968479856   0.110959779906733   0.626107363583693   1.0000000
B2   B   0.555721148529499   0.611442297059460   0.625305670677155   1.0000000
B2   B   0.388734222077348   0.110694160683326   0.625825398529664   1.0000000
B2   B   0.889138677510677   0.611236005421879   0.625668875038775   1.0000000
B2   B   0.055588003894436   0.611176007788869   0.124600596523803   1.0000000
B2   B   0.722243310601384   0.111090022732058   0.625757481479481   1.0000000
B2   B   0.221959938605841   0.110694160683326   0.124174601470356   1.0000000
B2   B   0.388734222077348   0.611373394727667   0.124174601470355   1.0000000
B2   B   0.722639172650071   0.611373394727667   0.124174601470356   1.0000000
B2   B   0.555562811426789   0.110959779906733   0.123892636416361   1.0000000
B2   B   0.388734222077348   0.611373394727667   0.625825398529664   1.0000000
B2   B   0.888846712130933   0.111090022732058   0.124242518520591   1.0000000
B2   B   0.222157325544470   0.777745329438841   0.625399403476131   1.0000000
B2   B   0.055396968479854   0.277770521906323   0.626107363583693   1.0000000
B2   B   0.388550997428960   0.277101994858024   0.622526358211486   1.0000000
B2   B   0.555562811426797   0.777936364853342   0.626107363583693   1.0000000
B2   B   0.889040289930381   0.777848864392314   0.625822851569240   1.0000000
B2   B   0.722373553426680   0.277770521906323   0.626107363583693   1.0000000
B2   B   0.055588003894437   0.777745329438841   0.124600596523803   1.0000000
B2   B   0.388808574461799   0.777848864392314   0.124177148430955   1.0000000
B2   B   0.221891036273980   0.277612184803606   0.124694329322980   1.0000000
B2   B   0.722373553426680   0.777936364853342   0.123892636416361   1.0000000
B2   B   0.555721148529499   0.277612184803606   0.124694329322980   1.0000000
B2   B   0.888900078084699   0.277800156169400   0.124194718530640   1.0000000
B2   B   0.055484468940981   0.444524758871530   0.625822851569240   1.0000000
B2   B   0.222097327911460   0.944194655822652   0.625668875038775   1.0000000
B2   B   0.555533177163878   0.944433255248633   0.625805281469471   1.0000000
B2   B   0.388550997428960   0.444782335904369   0.622526358211486   1.0000000
B2   B   0.888900078084699   0.944433255248630   0.625805281469471   1.0000000
B2   B   0.055484468940981   0.944293043402948   0.124177148430955   1.0000000
B2   B   0.722639172650071   0.444599111255981   0.625825398529664   1.0000000
B2   B   0.388808574461799   0.944293043402948   0.124177148430954   1.0000000
B2   B   0.221959938605841   0.444599111255981   0.124174601470356   1.0000000
B2   B   0.222097327911460   0.611236005421879   0.124331124961334   1.0000000
B2   B   0.556231338475409   0.444782335904369   0.127473641788572   1.0000000
B2   B   0.722243310601384   0.944486621202396   0.124242518520591   1.0000000
B2   B   0.889040289930381   0.444524758871530   0.124177148430954   1.0000000
B2   B   0.055588003894436   0.611176007788869   0.625399403476131   1.0000000
B2   B   0.221959938605841   0.110694160683326   0.625825398529664   1.0000000
B2   B   0.722639172650071   0.611373394727667   0.625825398529664   1.0000000
B2   B   0.555562811426762   0.110959779906733   0.626107363583693   1.0000000
B2   B   0.888846712130933   0.111090022732058   0.625757481479481   1.0000000


