data_1
_audit_creation_method   'vasp2cif'
_cell_length_a    14.93631414619966
_cell_length_b    14.936314146199727
_cell_length_c    13.341276283792837
_cell_angle_alpha    90.0
_cell_angle_beta    90.0
_cell_angle_gamma    119.99999999999984

_symmetry_space_group_name_H-M    'P 1'
loop_
_atom_site_label
_atom_site_type_symbol
_atom_site_fract_x
_atom_site_fract_y
_atom_site_fract_z
_atom_site_occupancy
N2   N   0.111094042902050   0.055557107272429   0.124901753380531   1.0000000
N2   N   0.611151481173732   0.555636295680793   0.124206892932207   1.0000000
N2   N   0.444458514370712   0.055571227684946   0.124897383411666   1.0000000
N2   N   0.944428772315054   0.555541485629288   0.124897383411666   1.0000000
N2   N   0.777789726885975   0.055561530109655   0.124899609416398   1.0000000
N2   N   0.111101247613807   0.722217290473568   0.625085379084767   1.0000000
N2   N   0.444458514370712   0.722220620019102   0.625102616588333   1.0000000
N2   N   0.277745073137837   0.222211451245444   0.625172955106417   1.0000000
N2   N   0.777788548754556   0.722254926862163   0.625172955106417   1.0000000
N2   N   0.611133044774278   0.222211451245444   0.625172955106417   1.0000000
N2   N   0.944438469890345   0.222210273114025   0.625100390583602   1.0000000
N2   N   0.277782709526433   0.722217290473568   0.124914620915233   1.0000000
N2   N   0.111079757518648   0.222206545425988   0.124883844422360   1.0000000
N2   N   0.444451533832942   0.222236400999220   0.124861244381334   1.0000000
N2   N   0.611133044774278   0.722254926862163   0.124827044893582   1.0000000
N2   N   0.944428772315054   0.722220620019102   0.124897383411666   1.0000000
N2   N   0.777793454574012   0.222206545425988   0.124883844422360   1.0000000
N2   N   0.111103631594584   0.888896368405416   0.625087620025928   1.0000000
N2   N   0.444459403477503   0.888896368405416   0.625087620025928   1.0000000
N2   N   0.277745073137837   0.388866955225722   0.625172955106417   1.0000000
N2   N   0.611151481173732   0.388848518826268   0.625793107067793   1.0000000
N2   N   0.777793454574012   0.888920242481352   0.625116155577640   1.0000000
N2   N   0.944442892727570   0.388870268962949   0.625098246619469   1.0000000
N2   N   0.111094042902050   0.388870268962949   0.124901753380531   1.0000000
N2   N   0.277782709526433   0.888898752386194   0.124914620915233   1.0000000
N2   N   0.611129731037051   0.888905957097950   0.124901753380531   1.0000000
N2   N   0.444363704319207   0.388848518826268   0.124206892932207   1.0000000
N2   N   0.944442892727570   0.888905957097950   0.124901753380531   1.0000000
N2   N   0.777788548754556   0.388866955225722   0.124827044893582   1.0000000
N2   N   0.277779379980898   0.555541485629288   0.625102616588333   1.0000000
N2   N   0.111094042902050   0.055557107272429   0.625098246619469   1.0000000
N2   N   0.611151481173732   0.555636295680793   0.625793107067793   1.0000000
N2   N   0.444458514370712   0.055571227684946   0.625102616588333   1.0000000
N2   N   0.944428772315054   0.555541485629288   0.625102616588333   1.0000000
N2   N   0.111103631594584   0.555540596522497   0.124912379974072   1.0000000
N2   N   0.777789726885975   0.055561530109655   0.625100390583602   1.0000000
N2   N   0.277779379980898   0.055571227684946   0.124897383411666   1.0000000
N2   N   0.444451533832942   0.555548466167058   0.124861244381334   1.0000000
N2   N   0.777763599000780   0.555548466167058   0.124861244381334   1.0000000
N2   N   0.611129731037051   0.055557107272429   0.124901753380531   1.0000000
N2   N   0.444451533832942   0.555548466167058   0.625138755618666   1.0000000
N2   N   0.944438469890345   0.055561530109655   0.124899609416398   1.0000000
N2   N   0.277782709526433   0.722217290473568   0.625085379084767   1.0000000
N2   N   0.111079757518648   0.222206545425988   0.625116155577640   1.0000000
N2   N   0.444451533832942   0.222236400999220   0.625138755618666   1.0000000
N2   N   0.611133044774278   0.722254926862163   0.625172955106417   1.0000000
N2   N   0.944428772315054   0.722220620019102   0.625102616588333   1.0000000
N2   N   0.777793454574012   0.222206545425988   0.625116155577640   1.0000000
N2   N   0.111101247613807   0.722217290473568   0.124914620915233   1.0000000
N2   N   0.444458514370712   0.722220620019102   0.124897383411666   1.0000000
N2   N   0.277745073137837   0.222211451245444   0.124827044893582   1.0000000
N2   N   0.777788548754556   0.722254926862163   0.124827044893582   1.0000000
N2   N   0.611133044774278   0.222211451245444   0.124827044893582   1.0000000
N2   N   0.944438469890345   0.222210273114025   0.124899609416398   1.0000000
N2   N   0.111094042902050   0.388870268962949   0.625098246619469   1.0000000
N2   N   0.277782709526433   0.888898752386194   0.625085379084767   1.0000000
N2   N   0.611129731037051   0.888905957097950   0.625098246619469   1.0000000
N2   N   0.444363704319207   0.388848518826268   0.625793107067793   1.0000000
N2   N   0.944442892727570   0.888905957097950   0.625098246619469   1.0000000
N2   N   0.111103631594584   0.888896368405416   0.124912379974072   1.0000000
N2   N   0.777788548754556   0.388866955225722   0.625172955106417   1.0000000
N2   N   0.444459403477503   0.888896368405416   0.124912379974072   1.0000000
N2   N   0.277745073137837   0.388866955225722   0.124827044893582   1.0000000
N2   N   0.277779379980898   0.555541485629288   0.124897383411666   1.0000000
N2   N   0.611151481173732   0.388848518826268   0.124206892932207   1.0000000
N2   N   0.777793454574012   0.888920242481352   0.124883844422360   1.0000000
N2   N   0.944442892727570   0.388870268962949   0.124901753380531   1.0000000
N2   N   0.111103631594584   0.555540596522497   0.625087620025928   1.0000000
N2   N   0.277779379980898   0.055571227684946   0.625102616588333   1.0000000
N2   N   0.777763599000780   0.555548466167058   0.625138755618666   1.0000000
N2   N   0.611129731037051   0.055557107272429   0.625098246619469   1.0000000
N2   N   0.944438469890345   0.055561530109655   0.625100390583602   1.0000000
N2   N   0.054934549596829   0.110674726415898   0.375000000000000   1.0000000
N2   N   0.556222809956844   0.616383204393243   0.375000000000000   1.0000000
N2   N   0.388435020516655   0.110203374366653   0.375000000000000   1.0000000
N2   N   0.889796625633347   0.611564979483345   0.375000000000000   1.0000000
N2   N   0.722406843485734   0.110674726415898   0.375000000000000   1.0000000
N2   N   0.055560778712961   0.777779664458926   0.875000000000000   1.0000000
N2   N   0.388885552412630   0.777779664458926   0.875000000000000   1.0000000
N2   N   0.222224120640856   0.277778726987096   0.875000000000000   1.0000000
N2   N   0.722221273012905   0.777775879359144   0.875000000000000   1.0000000
N2   N   0.555549977080336   0.277771212700386   0.875000000000000   1.0000000
N2   N   0.888891001636863   0.277781641099122   0.875000000000000   1.0000000
N2   N   0.222222222222221   0.777777777777779   0.375000000000000   1.0000000
N2   N   0.054934549596829   0.277593156514267   0.375000000000000   1.0000000
N2   N   0.383616795606757   0.273172938896937   0.375000000000000   1.0000000
N2   N   0.555378670214835   0.779811772796579   0.375000000000000   1.0000000
N2   N   0.891099769248409   0.779811772796579   0.375000000000000   1.0000000
N2   N   0.723264941454574   0.276735058545427   0.375000000000000   1.0000000
N2   N   0.055558213224649   0.944441786775351   0.875000000000000   1.0000000
N2   N   0.388885552412630   0.944439221287039   0.875000000000000   1.0000000
N2   N   0.222221048573036   0.444449479840631   0.875000000000000   1.0000000
N2   N   0.555555555555557   0.444444444444443   0.875000000000000   1.0000000
N2   N   0.722218358900878   0.944442693871077   0.875000000000000   1.0000000
N2   N   0.888895097934260   0.444449479840631   0.875000000000000   1.0000000
N2   N   0.055684311233107   0.444701955799542   0.375000000000000   1.0000000
N2   N   0.222083133616292   0.943965910664951   0.375000000000000   1.0000000
N2   N   0.555298044200457   0.944315688766893   0.375000000000000   1.0000000
N2   N   0.383616795606757   0.443777190043156   0.375000000000000   1.0000000
N2   N   0.889325273584102   0.945065450403171   0.375000000000000   1.0000000
N2   N   0.726827061103063   0.443777190043156   0.375000000000000   1.0000000
N2   N   0.222220335541074   0.611114447587370   0.875000000000000   1.0000000
N2   N   0.055557306128923   0.111108998363137   0.875000000000000   1.0000000
N2   N   0.555549977080336   0.611112097713286   0.875000000000000   1.0000000
N2   N   0.388883947084035   0.111101227501412   0.875000000000000   1.0000000
N2   N   0.888898772498588   0.611116052915966   0.875000000000000   1.0000000
N2   N   0.056034089335048   0.611450556284676   0.375000000000000   1.0000000
N2   N   0.722218358900878   0.111108998363137   0.875000000000000   1.0000000
N2   N   0.220188227203421   0.108900230751591   0.375000000000000   1.0000000
N2   N   0.388435020516655   0.611564979483345   0.375000000000000   1.0000000
N2   N   0.726827061103063   0.616383204393243   0.375000000000000   1.0000000
N2   N   0.555378670214835   0.108900230751591   0.375000000000000   1.0000000
N2   N   0.388883947084035   0.611116052915966   0.875000000000000   1.0000000
N2   N   0.888888888888886   0.111111111111114   0.375000000000000   1.0000000
N2   N   0.222222222222221   0.777777777777779   0.875000000000000   1.0000000
N2   N   0.055557306128923   0.277781641099122   0.875000000000000   1.0000000
N2   N   0.388887902286714   0.277771212700386   0.875000000000000   1.0000000
N2   N   0.555550520159369   0.777778951426965   0.875000000000000   1.0000000
N2   N   0.888895097934260   0.777778951426965   0.875000000000000   1.0000000
N2   N   0.722221273012905   0.277778726987096   0.875000000000000   1.0000000
N2   N   0.056034089335048   0.777916866383708   0.375000000000000   1.0000000
N2   N   0.388549443715324   0.777916866383708   0.375000000000000   1.0000000
N2   N   0.220136783757517   0.276735058545427   0.375000000000000   1.0000000
N2   N   0.723264941454574   0.779863216242483   0.375000000000000   1.0000000
N2   N   0.556222809956844   0.273172938896937   0.375000000000000   1.0000000
N2   N   0.889325273584102   0.277593156514267   0.375000000000000   1.0000000
N2   N   0.055558213224649   0.444449759782627   0.875000000000000   1.0000000
N2   N   0.222220335541074   0.944439221287039   0.875000000000000   1.0000000
N2   N   0.555550240217374   0.944441786775351   0.875000000000000   1.0000000
N2   N   0.388887902286714   0.444450022919664   0.875000000000000   1.0000000
N2   N   0.888891001636863   0.944442693871077   0.875000000000000   1.0000000
N2   N   0.055684311233107   0.944315688766893   0.375000000000000   1.0000000
N2   N   0.722228787299614   0.444450022919664   0.875000000000000   1.0000000
N2   N   0.388549443715324   0.943965910664951   0.375000000000000   1.0000000
N2   N   0.220188227203421   0.444621329785166   0.375000000000000   1.0000000
N2   N   0.222083133616292   0.611450556284676   0.375000000000000   1.0000000
N2   N   0.722406843485734   0.945065450403171   0.375000000000000   1.0000000
N2   N   0.891099769248409   0.444621329785166   0.375000000000000   1.0000000
N2   N   0.055560778712961   0.611114447587370   0.875000000000000   1.0000000
N2   N   0.222221048573036   0.111104902065740   0.875000000000000   1.0000000
N2   N   0.722228787299614   0.611112097713286   0.875000000000000   1.0000000
N2   N   0.555550520159369   0.111104902065740   0.875000000000000   1.0000000
N2   N   0.888888888888886   0.111111111111114   0.875000000000000   1.0000000
B2   B   0.110220119070450   0.054770076197903   0.375000000000000   1.0000000
B2   B   0.615326220799425   0.563985774932179   0.375000000000000   1.0000000
B2   B   0.444258938961357   0.055078055833601   0.375000000000000   1.0000000
B2   B   0.944921944166399   0.555741061038643   0.375000000000000   1.0000000
B2   B   0.777948627815352   0.055640980574344   0.375000000000000   1.0000000
B2   B   0.111101479389041   0.722217406361185   0.875000000000000   1.0000000
B2   B   0.444447118714034   0.722195683498093   0.875000000000000   1.0000000
B2   B   0.277842072848257   0.222263532335978   0.875000000000000   1.0000000
B2   B   0.777736467664022   0.722157927151743   0.875000000000000   1.0000000
B2   B   0.611088126154392   0.222263532335978   0.875000000000000   1.0000000
B2   B   0.944451689467668   0.222236712268671   0.875000000000000   1.0000000
B2   B   0.277676976053737   0.722323023946263   0.375000000000000   1.0000000
B2   B   0.110188823867388   0.221761078600358   0.375000000000000   1.0000000
B2   B   0.444436062485393   0.222205458304121   0.375000000000000   1.0000000
B2   B   0.611487715788713   0.725231331661353   0.375000000000000   1.0000000
B2   B   0.944921944166399   0.722514216461092   0.375000000000000   1.0000000
B2   B   0.778238921399642   0.221761078600358   0.375000000000000   1.0000000
B2   B   0.111113415151566   0.888886584848434   0.875000000000000   1.0000000
B2   B   0.444439836363539   0.888886584848434   0.875000000000000   1.0000000
B2   B   0.277842072848257   0.388911873845608   0.875000000000000   1.0000000
B2   B   0.611084353419733   0.388915646580267   0.875000000000000   1.0000000
B2   B   0.777755059361453   0.888843452056235   0.875000000000000   1.0000000
B2   B   0.944433178193264   0.388905945198386   0.875000000000000   1.0000000
B2   B   0.110220119070450   0.388783376205876   0.375000000000000   1.0000000
B2   B   0.277676976053737   0.888687285440803   0.375000000000000   1.0000000
B2   B   0.611216623794124   0.889779880929550   0.375000000000000   1.0000000
B2   B   0.436014225067821   0.384673779200575   0.375000000000000   1.0000000
B2   B   0.945229923802097   0.889779880929550   0.375000000000000   1.0000000
B2   B   0.780410282539311   0.388512284211287   0.375000000000000   1.0000000
B2   B   0.277804316501907   0.555552881285965   0.875000000000000   1.0000000
B2   B   0.111139433671793   0.055566821806736   0.875000000000000   1.0000000
B2   B   0.611084353419733   0.555502040172795   0.875000000000000   1.0000000
B2   B   0.444447118714034   0.055584768549277   0.875000000000000   1.0000000
B2   B   0.944415231450723   0.555552881285965   0.875000000000000   1.0000000
B2   B   0.111215418935259   0.555764171203846   0.375000000000000   1.0000000
B2   B   0.777763287731329   0.055548310532332   0.875000000000000   1.0000000
B2   B   0.277485783538909   0.055078055833601   0.375000000000000   1.0000000
B2   B   0.444436062485393   0.555563937514608   0.375000000000000   1.0000000
B2   B   0.777794541695879   0.555563937514608   0.375000000000000   1.0000000
B2   B   0.611216623794124   0.054770076197903   0.375000000000000   1.0000000
B2   B   0.444469085470329   0.555530914529671   0.875000000000000   1.0000000
B2   B   0.944359019425656   0.055640980574344   0.375000000000000   1.0000000
B2   B   0.277782593638815   0.722217406361185   0.875000000000000   1.0000000
B2   B   0.111156547943765   0.222244940638547   0.875000000000000   1.0000000
B2   B   0.444469085470329   0.222271504273995   0.875000000000000   1.0000000
B2   B   0.611088126154392   0.722157927151743   0.875000000000000   1.0000000
B2   B   0.944415231450723   0.722195683498093   0.875000000000000   1.0000000
B2   B   0.777755059361453   0.222244940638547   0.875000000000000   1.0000000
B2   B   0.111312714559197   0.722323023946263   0.375000000000000   1.0000000
B2   B   0.444258938961357   0.722514216461092   0.375000000000000   1.0000000
B2   B   0.274768668338647   0.219589717460689   0.375000000000000   1.0000000
B2   B   0.780410282539311   0.725231331661353   0.375000000000000   1.0000000
B2   B   0.611487715788713   0.219589717460689   0.375000000000000   1.0000000
B2   B   0.944359019425656   0.222051372184648   0.375000000000000   1.0000000
B2   B   0.111139433671793   0.388905945198386   0.875000000000000   1.0000000
B2   B   0.277782593638815   0.888898520610959   0.875000000000000   1.0000000
B2   B   0.611094054801614   0.888860566328207   0.875000000000000   1.0000000
B2   B   0.444497959827205   0.388915646580267   0.875000000000000   1.0000000
B2   B   0.944433178193264   0.888860566328207   0.875000000000000   1.0000000
B2   B   0.111215418935259   0.888784581064741   0.375000000000000   1.0000000
B2   B   0.777736467664022   0.388911873845608   0.875000000000000   1.0000000
B2   B   0.444235828796154   0.888784581064741   0.375000000000000   1.0000000
B2   B   0.274768668338647   0.388512284211287   0.375000000000000   1.0000000
B2   B   0.277485783538909   0.555741061038643   0.375000000000000   1.0000000
B2   B   0.615326220799425   0.384673779200575   0.375000000000000   1.0000000
B2   B   0.778238921399642   0.889811176132612   0.375000000000000   1.0000000
B2   B   0.945229923802097   0.388783376205876   0.375000000000000   1.0000000
B2   B   0.111113415151566   0.555560163636461   0.875000000000000   1.0000000
B2   B   0.277804316501907   0.055584768549277   0.875000000000000   1.0000000
B2   B   0.777728495726005   0.555530914529671   0.875000000000000   1.0000000
B2   B   0.611094054801614   0.055566821806736   0.875000000000000   1.0000000
B2   B   0.944451689467668   0.055548310532332   0.875000000000000   1.0000000
B2   B   0.055576522759433   0.111140855778691   0.125088457190780   1.0000000
B2   B   0.555620945615381   0.610959749579758   0.125255422919397   1.0000000
B2   B   0.388993753513118   0.111320840359578   0.125190369330783   1.0000000
B2   B   0.888679159640422   0.611006246486882   0.125190369330783   1.0000000
B2   B   0.722230999685923   0.111140855778691   0.125088457190780   1.0000000
B2   B   0.055472094945255   0.777749307988898   0.624919566955197   1.0000000
B2   B   0.388943879710307   0.777749307988898   0.624919566955197   1.0000000
B2   B   0.222314656261650   0.277823994797493   0.624835802689547   1.0000000
B2   B   0.722176005202507   0.777685343738350   0.624835802689547   1.0000000
B2   B   0.555620945615381   0.277994529368959   0.624744577080603   1.0000000
B2   B   0.888859144221309   0.277769000314077   0.624911542809220   1.0000000
B2   B   0.222222222222221   0.777777777777779   0.125065638384425   1.0000000
B2   B   0.055576522759433   0.277769000314077   0.125088457190780   1.0000000
B2   B   0.389040250420242   0.277994529368959   0.125255422919397   1.0000000
B2   B   0.555607553892324   0.777703069613230   0.125133419990224   1.0000000
B2   B   0.888762182387570   0.777703069613230   0.125133419990224   1.0000000
B2   B   0.722176005202507   0.277823994797493   0.125164197310453   1.0000000
B2   B   0.055533769867351   0.944466230132649   0.624919496323371   1.0000000
B2   B   0.388943879710307   0.944527905054745   0.624919566955197   1.0000000
B2   B   0.222296930386771   0.444392446107676   0.624866580009776   1.0000000
B2   B   0.555555555555557   0.444444444444443   0.623469685171837   1.0000000
B2   B   0.722230999685923   0.944423477240567   0.624911542809220   1.0000000
B2   B   0.888762182387570   0.444392446107676   0.624866580009776   1.0000000
B2   B   0.055533769867351   0.444400873068031   0.125080503676629   1.0000000
B2   B   0.222250692011102   0.944527905054745   0.125080433044802   1.0000000
B2   B   0.555599126931969   0.944466230132649   0.125080503676629   1.0000000
B2   B   0.389040250420242   0.444379054384619   0.125255422919397   1.0000000
B2   B   0.888859144221309   0.944423477240567   0.125088457190780   1.0000000
B2   B   0.722005470631041   0.444379054384619   0.125255422919397   1.0000000
B2   B   0.222250692011102   0.611056120289692   0.624919566955197   1.0000000
B2   B   0.055576522759433   0.111140855778691   0.624911542809220   1.0000000
B2   B   0.555620945615381   0.610959749579758   0.624744577080603   1.0000000
B2   B   0.388993753513118   0.111320840359578   0.624809630669217   1.0000000
B2   B   0.888679159640422   0.611006246486882   0.624809630669217   1.0000000
B2   B   0.055472094945255   0.611056120289692   0.125080433044802   1.0000000
B2   B   0.722230999685923   0.111140855778691   0.624911542809220   1.0000000
B2   B   0.222296930386771   0.111237817612430   0.125133419990224   1.0000000
B2   B   0.388993753513118   0.611006246486882   0.125190369330783   1.0000000
B2   B   0.722005470631041   0.610959749579758   0.125255422919397   1.0000000
B2   B   0.555607553892324   0.111237817612430   0.125133419990224   1.0000000
B2   B   0.388993753513118   0.611006246486882   0.624809630669217   1.0000000
B2   B   0.888888888888886   0.111111111111114   0.125075655090423   1.0000000
B2   B   0.222222222222221   0.777777777777779   0.624934361615575   1.0000000
B2   B   0.055576522759433   0.277769000314077   0.624911542809220   1.0000000
B2   B   0.389040250420242   0.277994529368959   0.624744577080603   1.0000000
B2   B   0.555607553892324   0.777703069613230   0.624866580009776   1.0000000
B2   B   0.888762182387570   0.777703069613230   0.624866580009776   1.0000000
B2   B   0.722176005202507   0.277823994797493   0.624835802689547   1.0000000
B2   B   0.055472094945255   0.777749307988898   0.125080433044802   1.0000000
B2   B   0.388943879710307   0.777749307988898   0.125080433044802   1.0000000
B2   B   0.222314656261650   0.277823994797493   0.125164197310453   1.0000000
B2   B   0.722176005202507   0.777685343738350   0.125164197310453   1.0000000
B2   B   0.555620945615381   0.277994529368959   0.125255422919397   1.0000000
B2   B   0.888859144221309   0.277769000314077   0.125088457190780   1.0000000
B2   B   0.055533769867351   0.444400873068031   0.624919496323371   1.0000000
B2   B   0.222250692011102   0.944527905054745   0.624919566955197   1.0000000
B2   B   0.555599126931969   0.944466230132649   0.624919496323371   1.0000000
B2   B   0.389040250420242   0.444379054384619   0.624744577080603   1.0000000
B2   B   0.888859144221309   0.944423477240567   0.624911542809220   1.0000000
B2   B   0.055533769867351   0.944466230132649   0.125080503676629   1.0000000
B2   B   0.722005470631041   0.444379054384619   0.624744577080603   1.0000000
B2   B   0.388943879710307   0.944527905054745   0.125080433044802   1.0000000
B2   B   0.222296930386771   0.444392446107676   0.125133419990224   1.0000000
B2   B   0.222250692011102   0.611056120289692   0.125080433044802   1.0000000
B2   B   0.555555555555557   0.444444444444443   0.126530314828163   1.0000000
B2   B   0.722230999685923   0.944423477240567   0.125088457190780   1.0000000
B2   B   0.888762182387570   0.444392446107676   0.125133419990224   1.0000000
B2   B   0.055472094945255   0.611056120289692   0.624919566955197   1.0000000
B2   B   0.222296930386771   0.111237817612430   0.624866580009776   1.0000000
B2   B   0.722005470631041   0.610959749579758   0.624744577080603   1.0000000
B2   B   0.555607553892324   0.111237817612430   0.624866580009776   1.0000000
B2   B   0.888888888888886   0.111111111111114   0.624924344909577   1.0000000
B2   B   0.555555555555557   0.444444444444443   0.375000000000000   1.0000000


