data_1
_audit_creation_method   'vasp2cif'
_cell_length_a    17.52789999999977
_cell_length_b    17.52789999999977
_cell_length_c    15.0
_cell_angle_alpha    90.0
_cell_angle_beta    90.0
_cell_angle_gamma    119.99999999999916

_symmetry_space_group_name_H-M    'P 1'
loop_
_atom_site_label
_atom_site_type_symbol
_atom_site_fract_x
_atom_site_fract_y
_atom_site_fract_z
_atom_site_occupancy
B2   B   0.907748433030453   0.956425110089620   0.111029354613285   1.0000000
B2   B   0.906461439601070   0.098148050811440   0.111044961157903   1.0000000
B2   B   0.905421423949124   0.239886957823696   0.111093620062295   1.0000000
B2   B   0.903378974096908   0.381275421689025   0.110999581908563   1.0000000
B2   B   0.897758327228371   0.522378425488392   0.111030260548245   1.0000000
B2   B   0.900029102559001   0.664576801126598   0.111108954180840   1.0000000
B2   B   0.906360080739301   0.812609684648785   0.111084818172725   1.0000000
B2   B   0.048436356600290   0.953554687226229   0.111035243507328   1.0000000
B2   B   0.049491865510408   0.097140031502056   0.110978104808422   1.0000000
B2   B   0.049192131643396   0.239672963540234   0.111003931154029   1.0000000
B2   B   0.047541560512043   0.381658519883718   0.111013795837243   1.0000000
B2   B   0.044334089735375   0.523171956717328   0.111029175109192   1.0000000
B2   B   0.043847144837513   0.664816397903664   0.111022226280437   1.0000000
B2   B   0.045207526955998   0.807944199646626   0.111035587821024   1.0000000
B2   B   0.188508942662259   0.950064733905783   0.111056421944278   1.0000000
B2   B   0.191496247753455   0.095350589016067   0.110967310097060   1.0000000
B2   B   0.191425676110144   0.237773082743253   0.110898521017058   1.0000000
B2   B   0.191738054863736   0.381242422073632   0.110992288055183   1.0000000
B2   B   0.189622960676197   0.523487993620473   0.111123652252030   1.0000000
B2   B   0.188128278646086   0.665181356240462   0.111086513765821   1.0000000
B2   B   0.187622460195515   0.807118577635579   0.111022440179040   1.0000000
B2   B   0.330624214953584   0.949107361991083   0.111027090154852   1.0000000
B2   B   0.330772176052877   0.090971243506911   0.111048654905776   1.0000000
B2   B   0.336181608865126   0.237785861814746   0.110899574263475   1.0000000
B2   B   0.334054265953226   0.378432091055226   0.111091971791325   1.0000000
B2   B   0.334267037815840   0.523343640658026   0.111351555641311   1.0000000
B2   B   0.332420517416873   0.665924974313715   0.111215917824703   1.0000000
B2   B   0.331061560734719   0.807702935289996   0.111013800053295   1.0000000
B2   B   0.474567958661447   0.950847036834154   0.110975006305810   1.0000000
B2   B   0.473854941798379   0.089777717904877   0.111064974148578   1.0000000
B2   B   0.472565320816354   0.227175216398916   0.110749854912241   1.0000000
B2   B   0.485311668419514   0.373992237768440   0.110841392028197   1.0000000
B2   B   0.477103061891688   0.672587129796863   0.111373339842198   1.0000000
B2   B   0.475436710576954   0.811780765257629   0.110946703589797   1.0000000
B2   B   0.619024022240056   0.954892253883370   0.110925667552123   1.0000000
B2   B   0.618141925546306   0.094198607280059   0.111085329191144   1.0000000
B2   B   0.617208746664021   0.233276461984807   0.110949912105491   1.0000000
B2   B   0.614496676382493   0.370245279187220   0.110771731061527   1.0000000
B2   B   0.624092701432818   0.682208165827497   0.111012313649966   1.0000000
B2   B   0.620755531139658   0.816622431239509   0.110838545345071   1.0000000
B2   B   0.763923218488846   0.957216055522185   0.110935942095509   1.0000000
B2   B   0.762826090475816   0.097468213082744   0.111071397809243   1.0000000
B2   B   0.761486176663338   0.238248097186128   0.111078742590829   1.0000000
B2   B   0.759106140643384   0.379318960684455   0.110977801255527   1.0000000
B2   B   0.747847997205845   0.521010142268198   0.111107444738399   1.0000000
B2   B   0.764723926008687   0.671922000383001   0.110876190601113   1.0000000
B2   B   0.766019719389414   0.817197649242138   0.110846568852331   1.0000000
Ga2   Ga   0.497610808751321   0.521511164066615   0.111869786475002   1.0000000
N2   N   0.953753912306413   0.907289435286022   0.111067180560351   1.0000000
N2   N   0.954535029329346   0.050756178167012   0.111004983471004   1.0000000
N2   N   0.953790416747293   0.192807125075508   0.111057049523248   1.0000000
N2   N   0.952184828744766   0.334685704666381   0.111014701546720   1.0000000
N2   N   0.947925886971222   0.476129323159381   0.110980842727484   1.0000000
N2   N   0.947420056198165   0.617330983571830   0.111037387349025   1.0000000
N2   N   0.949397095337701   0.760681767825085   0.111087544024368   1.0000000
N2   N   0.093403231217651   0.903386421302988   0.111022315115205   1.0000000
N2   N   0.096375170535142   0.048796926476867   0.110966636667643   1.0000000
N2   N   0.096692688008277   0.191715722624914   0.110927748728297   1.0000000
N2   N   0.096235099640262   0.334499851414976   0.110955214218923   1.0000000
N2   N   0.093763462525326   0.476483336986440   0.111022681413595   1.0000000
N2   N   0.092254084470220   0.617970519765332   0.111022971569799   1.0000000
N2   N   0.092056851877120   0.759854761034720   0.110992143044504   1.0000000
N2   N   0.235518581469174   0.902104086603598   0.111023292479787   1.0000000
N2   N   0.236385998691899   0.045145321443242   0.111039429842474   1.0000000
N2   N   0.240328375464487   0.191067826539243   0.110900301677641   1.0000000
N2   N   0.238945781821299   0.332226331397611   0.110901127640230   1.0000000
N2   N   0.238574251197781   0.476476190701052   0.111116737734779   1.0000000
N2   N   0.236954731889615   0.618459619440396   0.111152336156012   1.0000000
N2   N   0.235708029712555   0.760089786304870   0.111019792433714   1.0000000
N2   N   0.379134772589853   0.902644048299867   0.110956465699783   1.0000000
N2   N   0.378624281676423   0.043805582980711   0.111062724259267   1.0000000
N2   N   0.378868502376362   0.185583705560057   0.110905934694772   1.0000000
N2   N   0.387701635176901   0.334896638221038   0.110934370123650   1.0000000
N2   N   0.377706950391343   0.471316340602077   0.111440562749186   1.0000000
N2   N   0.381768279838142   0.619528006996787   0.111357230893548   1.0000000
N2   N   0.379966906524874   0.761420020891318   0.111049158826801   1.0000000
N2   N   0.523635811825618   0.905943688209292   0.110884274001333   1.0000000
N2   N   0.522877746602587   0.045024052748150   0.111061744874210   1.0000000
N2   N   0.522210444701945   0.183506131401985   0.110944018706222   1.0000000
N2   N   0.521627747432037   0.319285105516467   0.110449921115521   1.0000000
N2   N   0.561098096831676   0.463999602066227   0.111173462580193   1.0000000
N2   N   0.532704987103579   0.635846612645201   0.111777280637210   1.0000000
N2   N   0.525058230993043   0.767329522047596   0.110924027959862   1.0000000
N2   N   0.668625301832817   0.910238230463447   0.110850635180283   1.0000000
N2   N   0.667345417600083   0.049131943757979   0.111036567870796   1.0000000
N2   N   0.666300473295751   0.188747366108690   0.111053673369423   1.0000000
N2   N   0.665076090133427   0.328244449128723   0.110905555017491   1.0000000
N2   N   0.645757603631324   0.463298141578231   0.111053312270890   1.0000000
N2   N   0.674004561992218   0.639432688121405   0.110327027443300   1.0000000
N2   N   0.672466341845058   0.774341831798488   0.110731154805961   1.0000000
N2   N   0.812984485629292   0.910887363170550   0.110930009930587   1.0000000
N2   N   0.811406894684598   0.051310854863781   0.111008251402767   1.0000000
N2   N   0.810191762240205   0.192167218832528   0.111098779163572   1.0000000
N2   N   0.808202713659957   0.333470928113095   0.111001033083366   1.0000000
N2   N   0.799586473079962   0.474668219650779   0.111017490426569   1.0000000
N2   N   0.803020370797292   0.616724835646764   0.111125727903334   1.0000000
N2   N   0.811643015008851   0.767281050508200   0.110959062150484   1.0000000


