data_1
_audit_creation_method   'vasp2cif'
_cell_length_a    17.52789999999977
_cell_length_b    17.52789999999977
_cell_length_c    15.0
_cell_angle_alpha    90.0
_cell_angle_beta    90.0
_cell_angle_gamma    119.99999999999916

_symmetry_space_group_name_H-M    'P 1'
loop_
_atom_site_label
_atom_site_type_symbol
_atom_site_fract_x
_atom_site_fract_y
_atom_site_fract_z
_atom_site_occupancy
B2   B   0.904055974163226   0.951272695759034   0.110969408073747   1.0000000
B2   B   0.905319968814203   0.094682052381793   0.111037418842411   1.0000000
B2   B   0.905699347047660   0.237640350519067   0.111057582747789   1.0000000
B2   B   0.905584383710930   0.380542682338382   0.111001194471538   1.0000000
B2   B   0.904327250781501   0.523231815660230   0.110983601757714   1.0000000
B2   B   0.902643018967889   0.665504915594263   0.111016460968478   1.0000000
B2   B   0.901861378004139   0.807197849936131   0.110980343418298   1.0000000
B2   B   0.047337362805558   0.952664658390446   0.110951913297303   1.0000000
B2   B   0.048729325436969   0.095946047032771   0.110969408073747   1.0000000
B2   B   0.048995131088823   0.238472333560283   0.111021162655776   1.0000000
B2   B   0.048492472550316   0.381075548283744   0.111015939120576   1.0000000
B2   B   0.047357191133738   0.523943369515623   0.111001025175464   1.0000000
B2   B   0.046476812432655   0.666734590413762   0.111009907138910   1.0000000
B2   B   0.046414259840563   0.809510103157034   0.110968986337923   1.0000000
B2   B   0.190491918038969   0.953587761355440   0.110968986337923   1.0000000
B2   B   0.192804171259872   0.098140643191857   0.110980343418298   1.0000000
B2   B   0.193379680900786   0.240651974745695   0.110986156659370   1.0000000
B2   B   0.192043760318779   0.381971770546704   0.111000388483265   1.0000000
B2   B   0.190119113388503   0.524509748212666   0.111044093732370   1.0000000
B2   B   0.189501795622479   0.667348681776265   0.111067529481423   1.0000000
B2   B   0.189711740099242   0.810290281096754   0.111000478043058   1.0000000
B2   B   0.333267430783237   0.953525208763348   0.111009907138910   1.0000000
B2   B   0.334497105602736   0.097359002228107   0.111016460968478   1.0000000
B2   B   0.339331469970466   0.244553834866896   0.111036381581286   1.0000000
B2   B   0.337860888486309   0.385035857151032   0.111093589831085   1.0000000
B2   B   0.332616205381538   0.526004374966913   0.111107271872506   1.0000000
B2   B   0.332065324636076   0.667936696560915   0.111100002330069   1.0000000
B2   B   0.332653339420733   0.810500225573524   0.111067529481423   1.0000000
B2   B   0.476058651681376   0.952644830062266   0.111001025175464   1.0000000
B2   B   0.476770205536769   0.095674770414495   0.110983601757714   1.0000000
B2   B   0.478063288126749   0.239354114632369   0.111062150606890   1.0000000
B2   B   0.489672992101824   0.391974985103863   0.111140971703511   1.0000000
B2   B   0.473997646230085   0.667385815815461   0.111107271872506   1.0000000
B2   B   0.475492272984332   0.809882907807501   0.111044093732370   1.0000000
B2   B   0.618926472912260   0.951509548645687   0.111015939120576   1.0000000
B2   B   0.619459338857621   0.094417637485066   0.111001194471538   1.0000000
B2   B   0.620038984640413   0.236942753718581   0.110985089925002   1.0000000
B2   B   0.621180477402305   0.378821543793698   0.111017234209035   1.0000000
B2   B   0.608027036092141   0.510329029095182   0.111140971703511   1.0000000
B2   B   0.614966164044972   0.662141132710690   0.111093589831085   1.0000000
B2   B   0.618030250649300   0.807958260877224   0.111000388483265   1.0000000
B2   B   0.761529687635720   0.951006890107181   0.111021162655776   1.0000000
B2   B   0.762361670676937   0.094302674148337   0.111057582747789   1.0000000
B2   B   0.762776293138647   0.237225728057356   0.111027385824918   1.0000000
B2   B   0.763059267477423   0.379963036555590   0.110985089925002   1.0000000
B2   B   0.760647906563634   0.521938733070249   0.111062150606890   1.0000000
B2   B   0.755448186329107   0.660670551226533   0.111036381581286   1.0000000
B2   B   0.759350046450309   0.806622340295217   0.110986156659370   1.0000000
C2   C   0.472719127787078   0.527282893409920   0.111263893111950   1.0000000
N2   N   0.951207207541129   0.903394159020537   0.110946139166964   1.0000000
N2   N   0.952888913485362   0.047112488432644   0.110972674272632   1.0000000
N2   N   0.953461296602221   0.190185039589186   0.111032444194602   1.0000000
N2   N   0.953297140226394   0.333025543889645   0.111007454084527   1.0000000
N2   N   0.952320551610581   0.475882975257878   0.110959342707021   1.0000000
N2   N   0.951103782587982   0.618569042994177   0.110986022640370   1.0000000
N2   N   0.950630137285222   0.760866263446095   0.110976654819603   1.0000000
N2   N   0.094871858055974   0.905129543862025   0.110941682275674   1.0000000
N2   N   0.096607242897462   0.048794194376876   0.110946139166964   1.0000000
N2   N   0.097377910647058   0.191657862887459   0.110967357028002   1.0000000
N2   N   0.096617414882624   0.333831234023638   0.110991559522792   1.0000000
N2   N   0.095184774228009   0.476435555011506   0.110999716375250   1.0000000
N2   N   0.094354871196000   0.619305435031448   0.111008153292361   1.0000000
N2   N   0.094259119796920   0.762155564235152   0.110971405483758   1.0000000
N2   N   0.237845837682847   0.905742282121079   0.110971405483758   1.0000000
N2   N   0.239135138471910   0.049371264632784   0.110976654819603   1.0000000
N2   N   0.242507954504937   0.194663427268918   0.110978190963341   1.0000000
N2   N   0.241639167235157   0.336172157284835   0.110992940104963   1.0000000
N2   N   0.238110729767038   0.477161701514670   0.111017729133674   1.0000000
N2   N   0.237110029768291   0.619788687843289   0.111070683763951   1.0000000
N2   N   0.237324883459094   0.762676518458911   0.111043251232663   1.0000000
N2   N   0.380695966886550   0.905646530721999   0.111008153292361   1.0000000
N2   N   0.381432358923821   0.048897619330024   0.110986022640370   1.0000000
N2   N   0.383172171944874   0.193213368240922   0.111033265625021   1.0000000
N2   N   0.390913511570223   0.342806251114390   0.111071626466496   1.0000000
N2   N   0.382444990695219   0.480444761476583   0.111160521136893   1.0000000
N2   N   0.379469313161931   0.620532088756068   0.111100769371498   1.0000000
N2   N   0.380212714074710   0.762891372149715   0.111070683763951   1.0000000
N2   N   0.523565846905491   0.904816627689990   0.110999716375250   1.0000000
N2   N   0.524118426659119   0.047680850307424   0.110959342707021   1.0000000
N2   N   0.524887801630071   0.190718972869307   0.110988697947293   1.0000000
N2   N   0.526796842893519   0.334358637135147   0.111043227701488   1.0000000
N2   N   0.519556640440414   0.617556411222779   0.111160521136893   1.0000000
N2   N   0.522839700402327   0.761890672150968   0.111017729133674   1.0000000
N2   N   0.666170167893359   0.903383987035375   0.110991559522792   1.0000000
N2   N   0.666975858027352   0.046704261691612   0.111007454084527   1.0000000
N2   N   0.667514600837623   0.189439378303125   0.110990275031110   1.0000000
N2   N   0.668288276877602   0.331713125039395   0.110953702044631   1.0000000
N2   N   0.665642764781843   0.473204559023478   0.111043227701488   1.0000000
N2   N   0.657195150802607   0.609087890347776   0.111071626466496   1.0000000
N2   N   0.663829244632162   0.758362234682849   0.110992940104963   1.0000000
N2   N   0.808343539030540   0.902623491270941   0.110967357028002   1.0000000
N2   N   0.809816362328813   0.046540105315785   0.111032444194602   1.0000000
N2   N   0.810350904789025   0.189650497128973   0.111048462957353   1.0000000
N2   N   0.810562023614874   0.332486801079374   0.110990275031110   1.0000000
N2   N   0.809282429048692   0.475113600286926   0.110988697947293   1.0000000
N2   N   0.806788033677077   0.616829229973124   0.111033265625021   1.0000000
N2   N   0.805337974649081   0.757493447413069   0.110978190963341   1.0000000


