data_1
_audit_creation_method   'vasp2cif'
_cell_length_a    17.52789999999977
_cell_length_b    17.52789999999977
_cell_length_c    15.0
_cell_angle_alpha    90.0
_cell_angle_beta    90.0
_cell_angle_gamma    119.99999999999916

_symmetry_space_group_name_H-M    'P 1'
loop_
_atom_site_label
_atom_site_type_symbol
_atom_site_fract_x
_atom_site_fract_y
_atom_site_fract_z
_atom_site_occupancy
B2   B   0.905410071415238   0.953240974661546   0.122841823444306   1.0000000
B2   B   0.904473487472014   0.095738451444685   0.119912582515086   1.0000000
B2   B   0.904090901030621   0.238513945368752   0.117136938777781   1.0000000
B2   B   0.903893481469213   0.381230224634998   0.115539582790142   1.0000000
B2   B   0.904320809414607   0.523930665251711   0.115881026888633   1.0000000
B2   B   0.905569260388170   0.666944278118198   0.118615185867783   1.0000000
B2   B   0.906406338229355   0.810745588726787   0.123500419883967   1.0000000
B2   B   0.047857981315322   0.952032312215637   0.121640824829452   1.0000000
B2   B   0.046866444682470   0.094628502829375   0.122174041424264   1.0000000
B2   B   0.046678268478966   0.237806194222974   0.119624098984657   1.0000000
B2   B   0.046970436252622   0.380767790695153   0.115233113981957   1.0000000
B2   B   0.047659296471759   0.523474040084064   0.113492150161587   1.0000000
B2   B   0.048327332082235   0.666237699008749   0.115342534360820   1.0000000
B2   B   0.048326046770174   0.809193183222651   0.119008688637142   1.0000000
B2   B   0.190669145841758   0.951486428609476   0.118721539529482   1.0000000
B2   B   0.189194211386897   0.093400304184114   0.122913294842125   1.0000000
B2   B   0.188243923218840   0.236023575738436   0.122202073550531   1.0000000
B2   B   0.189453707893260   0.380013338482009   0.114726118321732   1.0000000
B2   B   0.190934047838444   0.522856124729434   0.108803390527534   1.0000000
B2   B   0.191620451429777   0.665768386589465   0.109628249465086   1.0000000
B2   B   0.191189729777448   0.808701045794661   0.113780987331183   1.0000000
B2   B   0.333685932273185   0.951554983601911   0.115346765567383   1.0000000
B2   B   0.332955990505988   0.094131405124506   0.117774141213125   1.0000000
B2   B   0.329607758747424   0.234137088076067   0.114734700654005   1.0000000
B2   B   0.328603944207006   0.376945925718932   0.103547995406957   1.0000000
B2   B   0.334328922377352   0.520733283475093   0.097134873731631   1.0000000
B2   B   0.335323043462702   0.665041719667284   0.101907382447573   1.0000000
B2   B   0.334262290939446   0.808486080244000   0.109583971320420   1.0000000
B2   B   0.476585187444513   0.952440533561125   0.114098789449918   1.0000000
B2   B   0.476082091287460   0.095505114244306   0.115880608911464   1.0000000
B2   B   0.475180167820532   0.238101409671883   0.107297939447113   1.0000000
B2   B   0.462567052090786   0.365947539467305   0.067431459656386   1.0000000
B2   B   0.479880376094457   0.667289557840103   0.089565541919596   1.0000000
B2   B   0.477315525486344   0.809482382395132   0.108202744672873   1.0000000
B2   B   0.619397473598456   0.953367342886787   0.115849309549313   1.0000000
B2   B   0.618904847655116   0.096276820238569   0.116110425210185   1.0000000
B2   B   0.618419196538222   0.239598420572602   0.111589957401776   1.0000000
B2   B   0.617041505276548   0.382937495836218   0.095711618931787   1.0000000
B2   B   0.631221307754974   0.536239967182479   0.068582488615584   1.0000000
B2   B   0.624253063426778   0.673136768284045   0.093845358389440   1.0000000
B2   B   0.620295544375907   0.811186274501004   0.112322433516840   1.0000000
B2   B   0.762365745178649   0.953637781125600   0.120247840269468   1.0000000
B2   B   0.761701324238249   0.096181088382121   0.117670257302604   1.0000000
B2   B   0.761214189491145   0.238972270694593   0.115575088099413   1.0000000
B2   B   0.760437917311951   0.381693452432935   0.111636662502991   1.0000000
B2   B   0.761350357608085   0.524858250648264   0.107868387586920   1.0000000
B2   B   0.765502943618914   0.670469443630608   0.113938163572728   1.0000000
B2   B   0.763981962878505   0.811982316081539   0.121681063108181   1.0000000
N2   N   0.953265558259722   0.905613715922370   0.123058505430556   1.0000000
N2   N   0.952089265111319   0.048015837990723   0.121393999055731   1.0000000
N2   N   0.951542126072927   0.190712759506011   0.118748556879157   1.0000000
N2   N   0.951549261919433   0.333564026988119   0.116035142960266   1.0000000
N2   N   0.952133569245313   0.476349056548655   0.115402619710790   1.0000000
N2   N   0.953119134445655   0.619145772633730   0.117363636251254   1.0000000
N2   N   0.953513330560300   0.762333235739030   0.121398922827206   1.0000000
N2   N   0.095573925648465   0.904275145602598   0.119708787076085   1.0000000
N2   N   0.094340971539080   0.046628014846556   0.122448132208989   1.0000000
N2   N   0.093313605931618   0.189226778649485   0.122333870191766   1.0000000
N2   N   0.093916437866768   0.332770038263513   0.117348009734872   1.0000000
N2   N   0.095099279197823   0.475854268044930   0.112525562800887   1.0000000
N2   N   0.095997437443243   0.618680659783080   0.112561976603989   1.0000000
N2   N   0.095978284041788   0.761479254421600   0.115749431566772   1.0000000
N2   N   0.238425965160314   0.903886137082266   0.115687518763525   1.0000000
N2   N   0.237573656598920   0.046271660909219   0.120697360729442   1.0000000
N2   N   0.235126871610746   0.187463725429245   0.124030911015490   1.0000000
N2   N   0.234399008650847   0.330149059348385   0.118134861402247   1.0000000
N2   N   0.237668500751189   0.475034909826840   0.107838598571827   1.0000000
N2   N   0.239244899057411   0.618282162061495   0.106340653845181   1.0000000
N2   N   0.238863180526206   0.761150938965861   0.110265328665772   1.0000000
N2   N   0.381354413236178   0.904039048055648   0.112889411641495   1.0000000
N2   N   0.380832256387726   0.046703806652976   0.117002847423912   1.0000000
N2   N   0.379613792328204   0.188564043769749   0.113893853362065   1.0000000
N2   N   0.373585796345356   0.325991787327206   0.099822000132064   1.0000000
N2   N   0.375008762028069   0.468785859008282   0.091101676870636   1.0000000
N2   N   0.382970198838155   0.617746697434428   0.093703004624723   1.0000000
N2   N   0.381898384569244   0.761080107840320   0.105757335318437   1.0000000
N2   N   0.524307053020958   0.905183501712083   0.113169834501357   1.0000000
N2   N   0.523767626421328   0.047896998987913   0.115973918560838   1.0000000
N2   N   0.523206379786143   0.190753462604298   0.113265254372615   1.0000000
N2   N   0.521281206261064   0.332345208388078   0.091016087887624   1.0000000
N2   N   0.533434401354035   0.629110491271159   0.072909525210616   1.0000000
N2   N   0.525391361552353   0.763120267948907   0.104946374044223   1.0000000
N2   N   0.667447527625133   0.906513911394745   0.117432792048626   1.0000000
N2   N   0.666639069660732   0.048733870121458   0.116893512174683   1.0000000
N2   N   0.666120824777965   0.191578233405898   0.115165173031250   1.0000000
N2   N   0.665271664733393   0.334811192071845   0.106907460554738   1.0000000
N2   N   0.667000577659857   0.478973338296077   0.091780142252473   1.0000000
N2   N   0.674247771701192   0.626947874041665   0.095940959954370   1.0000000
N2   N   0.670019155359140   0.766093597096059   0.114529365264410   1.0000000
N2   N   0.810820132014232   0.906893095964898   0.123293543968083   1.0000000
N2   N   0.809504533176685   0.048746377667728   0.119403245440325   1.0000000
N2   N   0.808959237382726   0.191289767274945   0.116871081886365   1.0000000
N2   N   0.808571293565175   0.334059769881814   0.114975324832703   1.0000000
N2   N   0.808980409714816   0.476908650013508   0.113468589698113   1.0000000
N2   N   0.811016761987817   0.620353175543744   0.114933611783468   1.0000000
N2   N   0.812319722944619   0.764898000288711   0.123974190500463   1.0000000
Sb2   Sb   0.498926453810718   0.500624857867246   0.019298380190632   1.0000000


