data_1
_audit_creation_method   'vasp2cif'
_cell_length_a    17.52789999999977
_cell_length_b    17.52789999999977
_cell_length_c    15.0
_cell_angle_alpha    90.0
_cell_angle_beta    90.0
_cell_angle_gamma    119.99999999999916

_symmetry_space_group_name_H-M    'P 1'
loop_
_atom_site_label
_atom_site_type_symbol
_atom_site_fract_x
_atom_site_fract_y
_atom_site_fract_z
_atom_site_occupancy
B2   B   0.903757679820713   0.950803055704709   0.108441425182734   1.0000000
B2   B   0.903643997639023   0.093304748113245   0.110850670894196   1.0000000
B2   B   0.903900791459241   0.236217843253507   0.111303327529205   1.0000000
B2   B   0.904328321445073   0.379457453866434   0.110036347097829   1.0000000
B2   B   0.905860491476092   0.523126162117175   0.106365844104053   1.0000000
B2   B   0.907064104897899   0.666903207394327   0.103025013626794   1.0000000
B2   B   0.906322527953104   0.810145393806387   0.103805332560768   1.0000000
B2   B   0.048244719486126   0.953129312145130   0.109594795870305   1.0000000
B2   B   0.047850594704041   0.095561419261652   0.108850581741068   1.0000000
B2   B   0.047223910837500   0.237389252530588   0.110256877953464   1.0000000
B2   B   0.046793309854370   0.379816841428899   0.112701522419753   1.0000000
B2   B   0.046925231716972   0.523113124257669   0.115281996112249   1.0000000
B2   B   0.047818379428478   0.666783391372524   0.115029417492211   1.0000000
B2   B   0.048414341362526   0.810227882844445   0.111996835678244   1.0000000
B2   B   0.190958283818674   0.953438022628202   0.112665298910151   1.0000000
B2   B   0.191040466149823   0.096470917734188   0.107575504934255   1.0000000
B2   B   0.192375019946600   0.240764217898016   0.106464740096582   1.0000000
B2   B   0.190122084822192   0.381131391507986   0.108144831937374   1.0000000
B2   B   0.188477668477118   0.523514787480783   0.112036916320256   1.0000000
B2   B   0.188877806135358   0.666794027519754   0.117273278102917   1.0000000
B2   B   0.190316591383690   0.810199752278063   0.117544786240051   1.0000000
B2   B   0.333306673644856   0.952985066133759   0.112855929357291   1.0000000
B2   B   0.333878902821217   0.096411061752769   0.108883671663353   1.0000000
B2   B   0.333764481972692   0.239665351301285   0.106312199880362   1.0000000
B2   B   0.338566786690337   0.388116528812383   0.108908621099106   1.0000000
B2   B   0.329952331356513   0.524577911499974   0.106555451669473   1.0000000
B2   B   0.329598603251291   0.667195405677085   0.110422862034923   1.0000000
B2   B   0.332275652620142   0.809865768374730   0.114819751713628   1.0000000
B2   B   0.475507623061393   0.950907585562218   0.110143415866392   1.0000000
B2   B   0.476227163671294   0.094882834900648   0.107734289224980   1.0000000
B2   B   0.476889673311121   0.238797873958341   0.111618304940809   1.0000000
B2   B   0.472737456759422   0.378014423657597   0.135281629520748   1.0000000
B2   B   0.481370951396574   0.563590727192998   0.127877725554227   1.0000000
B2   B   0.468437553637270   0.659640548796405   0.114636637062479   1.0000000
B2   B   0.473995905140706   0.806273731308335   0.112031105965064   1.0000000
B2   B   0.617415943588677   0.948869896790051   0.110141318347484   1.0000000
B2   B   0.618409105876086   0.093192079411580   0.107541287233839   1.0000000
B2   B   0.619028898790951   0.237011419134487   0.106995893737803   1.0000000
B2   B   0.619899203021923   0.380741067168950   0.115214954643816   1.0000000
B2   B   0.633510113529111   0.529759201425633   0.130721770062905   1.0000000
B2   B   0.620490253008890   0.658395253709497   0.107533105557278   1.0000000
B2   B   0.615215761530589   0.803478087453385   0.111120661648934   1.0000000
B2   B   0.759784502631257   0.948739936906576   0.110148874855884   1.0000000
B2   B   0.760679633461485   0.092527805918572   0.110104363741712   1.0000000
B2   B   0.761343444479592   0.236121894053087   0.107796295356898   1.0000000
B2   B   0.762142223790505   0.379624625364512   0.104642092217679   1.0000000
B2   B   0.765144786551577   0.523271751155536   0.100130215657470   1.0000000
B2   B   0.767333189491976   0.667938974111204   0.095429911562683   1.0000000
B2   B   0.759821496469112   0.805433262788134   0.104586749629506   1.0000000
N2   N   0.952855022066706   0.904887521449282   0.107679548566132   1.0000000
N2   N   0.951791879779556   0.046384011855240   0.109805550596603   1.0000000
N2   N   0.951577872142852   0.188735858186569   0.111444138655347   1.0000000
N2   N   0.951553868828895   0.331583245149500   0.112106931813904   1.0000000
N2   N   0.952202974518905   0.474871540634875   0.111307622446107   1.0000000
N2   N   0.953366494109379   0.618640189764033   0.108340343090944   1.0000000
N2   N   0.953546161833453   0.762304797573026   0.105957219463352   1.0000000
N2   N   0.095731317168012   0.905539106215925   0.112089434721345   1.0000000
N2   N   0.095671351951653   0.048296117761834   0.108710620137851   1.0000000
N2   N   0.096122222868742   0.191269276606847   0.108384748059579   1.0000000
N2   N   0.094694035119445   0.332565651480015   0.110622917651849   1.0000000
N2   N   0.093806191564089   0.475125408439406   0.114745387285439   1.0000000
N2   N   0.094221221143259   0.618540740568282   0.118083567121087   1.0000000
N2   N   0.095306515275915   0.762248163198554   0.116620713182015   1.0000000
N2   N   0.238183038394029   0.905523418261656   0.115517996378296   1.0000000
N2   N   0.238556405387072   0.048707909636440   0.109450323668652   1.0000000
N2   N   0.238653578278010   0.191825328543319   0.104965646861812   1.0000000
N2   N   0.241122335669370   0.337098040420176   0.106464691901541   1.0000000
N2   N   0.235741147171887   0.475976472867444   0.107646422348394   1.0000000
N2   N   0.235274205803388   0.618798114107315   0.113411508538682   1.0000000
N2   N   0.237278753037514   0.762189784576173   0.118080003082523   1.0000000
N2   N   0.380451891055191   0.904803074527860   0.112926893447106   1.0000000
N2   N   0.381054939104635   0.048098743531983   0.109600497160040   1.0000000
N2   N   0.381459132713968   0.191694433337269   0.108334805682952   1.0000000
N2   N   0.381325649076419   0.335133327702674   0.110756804964614   1.0000000
N2   N   0.385956453940016   0.486314562963701   0.108548293718085   1.0000000
N2   N   0.375486955202646   0.619356281798156   0.106763179239619   1.0000000
N2   N   0.379155485793738   0.761738392008167   0.112572415211034   1.0000000
N2   N   0.522337505834957   0.901818289883269   0.110439784132913   1.0000000
N2   N   0.523291309392862   0.046227065525126   0.107682924661259   1.0000000
N2   N   0.523901287810672   0.190157525626465   0.107297551890528   1.0000000
N2   N   0.524174680652434   0.333695621271468   0.122016805311380   1.0000000
N2   N   0.519925211523295   0.755500802847575   0.113598772972846   1.0000000
N2   N   0.663962252502894   0.899434478400117   0.110654735414378   1.0000000
N2   N   0.665383549682309   0.044502457761089   0.109073687979071   1.0000000
N2   N   0.666176175488237   0.188633903000833   0.106523685490083   1.0000000
N2   N   0.666783593183917   0.332364551020125   0.107306837655258   1.0000000
N2   N   0.671305072738033   0.476126493444549   0.111032946012218   1.0000000
N2   N   0.673475063682992   0.619608042143268   0.099119981106948   1.0000000
N2   N   0.661395404460800   0.753416365739822   0.107412815369791   1.0000000
N2   N   0.807329573448785   0.901097488334630   0.108280989395154   1.0000000
N2   N   0.807914210775620   0.044412622799018   0.110934925115410   1.0000000
N2   N   0.808552081960235   0.188034364772371   0.109951674447051   1.0000000
N2   N   0.809177084605736   0.331502852194929   0.106892893613421   1.0000000
N2   N   0.811297998768188   0.474972052670089   0.100833934018786   1.0000000
N2   N   0.812948089901505   0.618989978779372   0.096315651961442   1.0000000
N2   N   0.811208878345371   0.762150412907713   0.098720679895623   1.0000000
Si2   Si   0.526542604988764   0.495818414432346   0.194480217628202   1.0000000


