data_1
_audit_creation_method   'vasp2cif'
_cell_length_a    14.93631414619966
_cell_length_b    14.936314146199727
_cell_length_c    13.341276283792837
_cell_angle_alpha    90.0
_cell_angle_beta    90.0
_cell_angle_gamma    119.99999999999984

_symmetry_space_group_name_H-M    'P 1'
loop_
_atom_site_label
_atom_site_type_symbol
_atom_site_fract_x
_atom_site_fract_y
_atom_site_fract_z
_atom_site_occupancy
P2   P   0.555555555555557   0.444444444444443   0.375000000000000   1.0000000
N2   N   0.111103745863801   0.055553599023900   0.125668561941863   1.0000000
N2   N   0.611149349307813   0.555632031948687   0.123698697421165   1.0000000
N2   N   0.444447363606000   0.055561500129952   0.125733127978032   1.0000000
N2   N   0.944438499869986   0.555552636394275   0.125733127978032   1.0000000
N2   N   0.777782855302575   0.055558094317962   0.125361029589410   1.0000000
N2   N   0.111110056511851   0.722221694922538   0.624613940202825   1.0000000
N2   N   0.444447363606000   0.722219196809441   0.624266872021961   1.0000000
N2   N   0.277758264482588   0.222216768039427   0.624520500923940   1.0000000
N2   N   0.777783231960522   0.722241735517468   0.624520500923940   1.0000000
N2   N   0.611125170223355   0.222216768039427   0.624520500923940   1.0000000
N2   N   0.944441905681942   0.222217144697380   0.624638970410482   1.0000000
N2   N   0.277778305077411   0.722221694922538   0.125386059797168   1.0000000
N2   N   0.111087117626235   0.222210225479736   0.125566331585036   1.0000000
N2   N   0.444454833360067   0.222243000053502   0.125285372247561   1.0000000
N2   N   0.611125170223355   0.722241735517468   0.125479499075836   1.0000000
N2   N   0.944438499869986   0.722219196809441   0.125733127978032   1.0000000
N2   N   0.777789774520093   0.222210225479736   0.125566331585036   1.0000000
N2   N   0.111108377393294   0.888891622606542   0.624431638798801   1.0000000
N2   N   0.444449911880061   0.888891622606542   0.624431638798801   1.0000000
N2   N   0.277758264482588   0.388874829776627   0.624520500923940   1.0000000
N2   N   0.611149349307813   0.388850650692321   0.626301302578870   1.0000000
N2   N   0.777789774520093   0.888912882373940   0.624433668414888   1.0000000
N2   N   0.944446400976211   0.388883480173176   0.624331438058292   1.0000000
N2   N   0.111103745863801   0.388883480173176   0.125668561941863   1.0000000
N2   N   0.277778305077411   0.888889943488151   0.125386059797168   1.0000000
N2   N   0.611116519826616   0.888896254136113   0.125668561941863   1.0000000
N2   N   0.444367968051230   0.388850650692321   0.123698697421165   1.0000000
N2   N   0.944446400976211   0.888896254136113   0.125668561941863   1.0000000
N2   N   0.777783231960523   0.388874829776627   0.125479499075836   1.0000000
N2   N   0.277780803190649   0.555552636394275   0.624266872021961   1.0000000
N2   N   0.111103745863801   0.055553599023900   0.624331438058292   1.0000000
N2   N   0.611149349307813   0.555632031948687   0.626301302578870   1.0000000
N2   N   0.444447363606000   0.055561500129952   0.624266872021961   1.0000000
N2   N   0.944438499869986   0.555552636394275   0.624266872021961   1.0000000
N2   N   0.111108377393294   0.555550088119969   0.125568361201361   1.0000000
N2   N   0.777782855302575   0.055558094317962   0.624638970410482   1.0000000
N2   N   0.277780803190649   0.055561500129952   0.125733127978037   1.0000000
N2   N   0.444454833360067   0.555545166639784   0.125285372247562   1.0000000
N2   N   0.777756999946531   0.555545166639784   0.125285372247561   1.0000000
N2   N   0.611116519826616   0.055553599023900   0.125668561941863   1.0000000
N2   N   0.444454833360067   0.555545166639784   0.624714627752470   1.0000000
N2   N   0.944441905681942   0.055558094317962   0.125361029589410   1.0000000
N2   N   0.277778305077411   0.722221694922538   0.624613940202825   1.0000000
N2   N   0.111087117626235   0.222210225479736   0.624433668414887   1.0000000
N2   N   0.444454833360067   0.222243000053502   0.624714627752470   1.0000000
N2   N   0.611125170223355   0.722241735517468   0.624520500923940   1.0000000
N2   N   0.944438499869986   0.722219196809441   0.624266872021961   1.0000000
N2   N   0.777789774520093   0.222210225479736   0.624433668414888   1.0000000
N2   N   0.111110056511851   0.722221694922538   0.125386059797168   1.0000000
N2   N   0.444447363606000   0.722219196809441   0.125733127978032   1.0000000
N2   N   0.277758264482588   0.222216768039427   0.125479499075838   1.0000000
N2   N   0.777783231960523   0.722241735517468   0.125479499075836   1.0000000
N2   N   0.611125170223355   0.222216768039427   0.125479499075836   1.0000000
N2   N   0.944441905681942   0.222217144697380   0.125361029589410   1.0000000
N2   N   0.111103745863801   0.388883480173176   0.624331438058292   1.0000000
N2   N   0.277778305077411   0.888889943488151   0.624613940202825   1.0000000
N2   N   0.611116519826616   0.888896254136113   0.624331438058292   1.0000000
N2   N   0.444367968051230   0.388850650692321   0.626301302578870   1.0000000
N2   N   0.944446400976211   0.888896254136113   0.624331438058292   1.0000000
N2   N   0.111108377393294   0.888891622606542   0.125568361201361   1.0000000
N2   N   0.777783231960522   0.388874829776627   0.624520500923940   1.0000000
N2   N   0.444449911880061   0.888891622606542   0.125568361201361   1.0000000
N2   N   0.277758264482588   0.388874829776627   0.125479499075836   1.0000000
N2   N   0.277780803190649   0.555552636394275   0.125733127978032   1.0000000
N2   N   0.611149349307813   0.388850650692321   0.123698697421165   1.0000000
N2   N   0.777789774520093   0.888912882373940   0.125566331585036   1.0000000
N2   N   0.944446400976211   0.388883480173176   0.125668561941863   1.0000000
N2   N   0.111108377393294   0.555550088119969   0.624431638798801   1.0000000
N2   N   0.277780803190649   0.055561500129952   0.624266872021961   1.0000000
N2   N   0.777756999946531   0.555545166639784   0.624714627752470   1.0000000
N2   N   0.611116519826616   0.055553599023900   0.624331438058292   1.0000000
N2   N   0.944441905681942   0.055558094317962   0.624638970410482   1.0000000
N2   N   0.054669765075705   0.110525877316931   0.375000000000000   1.0000000
N2   N   0.555605836727589   0.618860641241608   0.375000000000000   1.0000000
N2   N   0.387886883016960   0.109107099367350   0.375000000000000   1.0000000
N2   N   0.890892900632737   0.612113116983141   0.375000000000000   1.0000000
N2   N   0.722522778907998   0.110525877316931   0.375000000000000   1.0000000
N2   N   0.055556507033167   0.777779735437952   0.875000000000000   1.0000000
N2   N   0.388889895071492   0.777779735437952   0.875000000000000   1.0000000
N2   N   0.222221676101326   0.277777504717251   0.875000000000000   1.0000000
N2   N   0.722222495282791   0.777778323898833   0.875000000000000   1.0000000
N2   N   0.555551707702703   0.277771356494355   0.875000000000000   1.0000000
N2   N   0.888890298119390   0.277779978843638   0.875000000000000   1.0000000
N2   N   0.222222222222221   0.777777777777779   0.375000000000000   1.0000000
N2   N   0.054669765075705   0.277477221092070   0.375000000000000   1.0000000
N2   N   0.381139358758315   0.270078528819112   0.375000000000000   1.0000000
N2   N   0.555246803659108   0.780810324707166   0.375000000000000   1.0000000
N2   N   0.892230187714364   0.780810324707166   0.375000000000000   1.0000000
N2   N   0.723637717362152   0.276362282637950   0.375000000000000   1.0000000
N2   N   0.055555898178923   0.944444101821078   0.875000000000000   1.0000000
N2   N   0.388889895071492   0.944443492967026   0.875000000000000   1.0000000
N2   N   0.222220676452427   0.444446746373994   0.875000000000000   1.0000000
N2   N   0.555555555555557   0.444444444444443   0.875000000000000   1.0000000
N2   N   0.722220021156625   0.944443652609015   0.875000000000000   1.0000000
N2   N   0.888892736588178   0.444446746373994   0.875000000000000   1.0000000
N2   N   0.055707928955251   0.444749191243831   0.375000000000000   1.0000000
N2   N   0.221912990675719   0.943632083421641   0.375000000000000   1.0000000
N2   N   0.555250808756312   0.944292071044635   0.375000000000000   1.0000000
N2   N   0.381139358758315   0.444394163272466   0.375000000000000   1.0000000
N2   N   0.889474122683008   0.945330234924307   0.375000000000000   1.0000000
N2   N   0.729921471180821   0.444394163272466   0.375000000000000   1.0000000
N2   N   0.222220264562001   0.611110104928719   0.875000000000000   1.0000000
N2   N   0.055556347390947   0.111109701880704   0.875000000000000   1.0000000
N2   N   0.555551707702703   0.611113684541809   0.875000000000000   1.0000000
N2   N   0.388885941766433   0.111105216866261   0.875000000000000   1.0000000
N2   N   0.888894783133791   0.611114058233508   0.875000000000000   1.0000000
N2   N   0.056367916578351   0.611614240587473   0.375000000000000   1.0000000
N2   N   0.722220021156625   0.111109701880704   0.875000000000000   1.0000000
N2   N   0.219189675292961   0.107769812285572   0.375000000000000   1.0000000
N2   N   0.387886883016960   0.612113116983141   0.375000000000000   1.0000000
N2   N   0.729921471180821   0.618860641241608   0.375000000000000   1.0000000
N2   N   0.555246803659108   0.107769812285572   0.375000000000000   1.0000000
N2   N   0.388885941766433   0.611114058233508   0.875000000000000   1.0000000
N2   N   0.888888888888886   0.111111111111114   0.375000000000000   1.0000000
N2   N   0.222222222222221   0.777777777777779   0.875000000000000   1.0000000
N2   N   0.055556347390947   0.277779978843638   0.875000000000000   1.0000000
N2   N   0.388886315458315   0.277771356494355   0.875000000000000   1.0000000
N2   N   0.555553253626088   0.777779323547705   0.875000000000000   1.0000000
N2   N   0.888892736588178   0.777779323547705   0.875000000000000   1.0000000
N2   N   0.722222495282791   0.277777504717251   0.875000000000000   1.0000000
N2   N   0.056367916578351   0.778087009324467   0.375000000000000   1.0000000
N2   N   0.388385759412651   0.778087009324467   0.375000000000000   1.0000000
N2   N   0.219391231942532   0.276362282637950   0.375000000000000   1.0000000
N2   N   0.723637717362152   0.780608768057436   0.375000000000000   1.0000000
N2   N   0.555605836727589   0.270078528819112   0.375000000000000   1.0000000
N2   N   0.889474122683008   0.277477221092070   0.375000000000000   1.0000000
N2   N   0.055555898178923   0.444445129691232   0.875000000000000   1.0000000
N2   N   0.222220264562001   0.944443492967026   0.875000000000000   1.0000000
N2   N   0.555554870308704   0.944444101821078   0.875000000000000   1.0000000
N2   N   0.388886315458315   0.444448292297296   0.875000000000000   1.0000000
N2   N   0.888890298119390   0.944443652609015   0.875000000000000   1.0000000
N2   N   0.055707928955251   0.944292071044635   0.375000000000000   1.0000000
N2   N   0.722228643505560   0.444448292297296   0.875000000000000   1.0000000
N2   N   0.388385759412651   0.943632083421641   0.375000000000000   1.0000000
N2   N   0.219189675292961   0.444753196340640   0.375000000000000   1.0000000
N2   N   0.221912990675719   0.611614240587473   0.375000000000000   1.0000000
N2   N   0.722522778907998   0.945330234924307   0.375000000000000   1.0000000
N2   N   0.892230187714364   0.444753196340640   0.375000000000000   1.0000000
N2   N   0.055556507033167   0.611110104928719   0.875000000000000   1.0000000
N2   N   0.222220676452427   0.111107263411848   0.875000000000000   1.0000000
N2   N   0.722228643505560   0.611113684541809   0.875000000000000   1.0000000
N2   N   0.555553253626088   0.111107263411848   0.875000000000000   1.0000000
N2   N   0.888888888888886   0.111111111111114   0.875000000000000   1.0000000
B2   B   0.109362869297585   0.054212510734972   0.375000000000000   1.0000000
B2   B   0.621526349279982   0.576386031893347   0.375000000000000   1.0000000
B2   B   0.444067855451218   0.054098614994709   0.375000000000000   1.0000000
B2   B   0.945901385005345   0.555932144548733   0.375000000000000   1.0000000
B2   B   0.778184334422550   0.055758833877973   0.375000000000000   1.0000000
B2   B   0.111108509176448   0.722220921254988   0.875000000000000   1.0000000
B2   B   0.444445420073130   0.722216295842307   0.875000000000000   1.0000000
B2   B   0.277794078236714   0.222233115406805   0.875000000000000   1.0000000
B2   B   0.777766884593057   0.722205921763284   0.875000000000000   1.0000000
B2   B   0.611105703836766   0.222233115406805   0.875000000000000   1.0000000
B2   B   0.944445411234245   0.222224155802113   0.875000000000000   1.0000000
B2   B   0.277551102400924   0.722448897599239   0.375000000000000   1.0000000
B2   B   0.109218307708520   0.221275820520951   0.375000000000000   1.0000000
B2   B   0.443120941679229   0.219575216691897   0.375000000000000   1.0000000
B2   B   0.612025270236497   0.728136450358689   0.375000000000000   1.0000000
B2   B   0.945901385005345   0.723302573789923   0.375000000000000   1.0000000
B2   B   0.778724179478964   0.221275820520951   0.375000000000000   1.0000000
B2   B   0.111110294851327   0.888889705148661   0.875000000000000   1.0000000
B2   B   0.444446076963977   0.888889705148661   0.875000000000000   1.0000000
B2   B   0.277794078236714   0.388894296163263   0.875000000000000   1.0000000
B2   B   0.611098884501005   0.388901115499057   0.875000000000000   1.0000000
B2   B   0.777774247845542   0.888881829024004   0.875000000000000   1.0000000
B2   B   0.944440856630329   0.388890408276940   0.875000000000000   1.0000000
B2   B   0.109362869297585   0.388483691895891   0.375000000000000   1.0000000
B2   B   0.277551102400924   0.888435538135177   0.375000000000000   1.0000000
B2   B   0.611516308104083   0.890637130702492   0.375000000000000   1.0000000
B2   B   0.423613968106549   0.378473650719991   0.375000000000000   1.0000000
B2   B   0.945787489265142   0.890637130702492   0.375000000000000   1.0000000
B2   B   0.782777846789324   0.387974729763697   0.375000000000000   1.0000000
B2   B   0.277783704157697   0.555554579926959   0.875000000000000   1.0000000
B2   B   0.111116218313379   0.055559143369714   0.875000000000000   1.0000000
B2   B   0.611098884501005   0.555531102335215   0.875000000000000   1.0000000
B2   B   0.444445420073130   0.055562457564031   0.875000000000000   1.0000000
B2   B   0.944437542435895   0.555554579926959   0.875000000000000   1.0000000
B2   B   0.111219436123163   0.555772205579528   0.375000000000000   1.0000000
B2   B   0.777775844197764   0.055554588765646   0.875000000000000   1.0000000
B2   B   0.276697426210288   0.054098614994709   0.375000000000000   1.0000000
B2   B   0.443120941679229   0.556879058320656   0.375000000000000   1.0000000
B2   B   0.780424783308207   0.556879058320656   0.375000000000000   1.0000000
B2   B   0.611516308104083   0.054212510734972   0.375000000000000   1.0000000
B2   B   0.444451764313553   0.555548235686449   0.875000000000000   1.0000000
B2   B   0.944241166121925   0.055758833877973   0.375000000000000   1.0000000
B2   B   0.277779078745172   0.722220921254988   0.875000000000000   1.0000000
B2   B   0.111118170975857   0.222225752154634   0.875000000000000   1.0000000
B2   B   0.444451764313553   0.222236861960574   0.875000000000000   1.0000000
B2   B   0.611105703836766   0.722205921763284   0.875000000000000   1.0000000
B2   B   0.944437542435895   0.722216295842307   0.875000000000000   1.0000000
B2   B   0.777774247845542   0.222225752154634   0.875000000000000   1.0000000
B2   B   0.111564461864977   0.722448897599239   0.375000000000000   1.0000000
B2   B   0.444067855451218   0.723302573789923   0.375000000000000   1.0000000
B2   B   0.271863549641554   0.217222153211083   0.375000000000000   1.0000000
B2   B   0.782777846789324   0.728136450358689   0.375000000000000   1.0000000
B2   B   0.612025270236497   0.217222153211083   0.375000000000000   1.0000000
B2   B   0.944241166121925   0.221815665577455   0.375000000000000   1.0000000
B2   B   0.111116218313379   0.388890408276940   0.875000000000000   1.0000000
B2   B   0.277779078745172   0.888891490823672   0.875000000000000   1.0000000
B2   B   0.611109591722978   0.888883781686516   0.875000000000000   1.0000000
B2   B   0.444468897664741   0.388901115499057   0.875000000000000   1.0000000
B2   B   0.944440856630329   0.888883781686516   0.875000000000000   1.0000000
B2   B   0.111219436123163   0.888780563876965   0.375000000000000   1.0000000
B2   B   0.777766884593057   0.388894296163265   0.875000000000000   1.0000000
B2   B   0.444227794420304   0.888780563876965   0.375000000000000   1.0000000
B2   B   0.271863549641554   0.387974729763697   0.375000000000000   1.0000000
B2   B   0.276697426210288   0.555932144548733   0.375000000000000   1.0000000
B2   B   0.621526349279982   0.378473650719991   0.375000000000000   1.0000000
B2   B   0.778724179478964   0.890781692291260   0.375000000000000   1.0000000
B2   B   0.945787489265142   0.388483691895891   0.375000000000000   1.0000000
B2   B   0.111110294851327   0.555553923035748   0.875000000000000   1.0000000
B2   B   0.277783704157697   0.055562457564031   0.875000000000000   1.0000000
B2   B   0.777763138039558   0.555548235686449   0.875000000000000   1.0000000
B2   B   0.611109591722978   0.055559143369714   0.875000000000000   1.0000000
B2   B   0.944445411234245   0.055554588765642   0.875000000000000   1.0000000
B2   B   0.055543724809629   0.111113643738796   0.125510632827616   1.0000000
B2   B   0.555603452864004   0.611066506610536   0.124757816052447   1.0000000
B2   B   0.388918036399306   0.111169406132254   0.125606636330121   1.0000000
B2   B   0.888830593868044   0.611081963600458   0.125606636330121   1.0000000
B2   B   0.722236585595733   0.111113643738796   0.125510632827616   1.0000000
B2   B   0.055539225973816   0.777772856765400   0.624475393864043   1.0000000
B2   B   0.388900297458141   0.777772856765400   0.624475393864043   1.0000000
B2   B   0.222211428077171   0.277772380705116   0.624517644987247   1.0000000
B2   B   0.722227619294845   0.777788571923103   0.624517644987247   1.0000000
B2   B   0.555603452864004   0.277870279586783   0.625242183947470   1.0000000
B2   B   0.888886356261207   0.277763414404084   0.624489367172235   1.0000000
B2   B   0.222222222222221   0.777777777777779   0.125298413558771   1.0000000
B2   B   0.055543724809633   0.277763414404084   0.125510632827616   1.0000000
B2   B   0.388933493389452   0.277870279586783   0.124757816052448   1.0000000
B2   B   0.555570593637596   0.777772840486890   0.125631464874958   1.0000000
B2   B   0.888868913515611   0.777772840486890   0.125631464874958   1.0000000
B2   B   0.722227619294845   0.277772380705116   0.125482355012960   1.0000000
B2   B   0.055548801955314   0.944451198044648   0.624386305028456   1.0000000
B2   B   0.388900297458141   0.944460774026331   0.624475393864043   1.0000000
B2   B   0.222227159513222   0.444429406362130   0.624368535125165   1.0000000
B2   B   0.555555555555557   0.444444444444443   0.625416036417650   1.0000000
B2   B   0.722236585595733   0.944456275190448   0.624489367172235   1.0000000
B2   B   0.888868913515611   0.444429406362130   0.624368535125165   1.0000000
B2   B   0.055548801955314   0.444430937243899   0.125613694971888   1.0000000
B2   B   0.222227143234665   0.944460774026331   0.125524606135795   1.0000000
B2   B   0.555569062755848   0.944451198044648   0.125613694971888   1.0000000
B2   B   0.388933493389464   0.444396547135986   0.124757816052448   1.0000000
B2   B   0.888886356261207   0.944456275190448   0.125510632827616   1.0000000
B2   B   0.722129720413229   0.444396547135986   0.124757816052448   1.0000000
B2   B   0.222227143234665   0.611099702541886   0.624475393864043   1.0000000
B2   B   0.055543724809633   0.111113643738796   0.624489367172235   1.0000000
B2   B   0.555603452864004   0.611066506610536   0.625242183947470   1.0000000
B2   B   0.388918036399306   0.111169406132254   0.624393363669941   1.0000000
B2   B   0.888830593868044   0.611081963600458   0.624393363669941   1.0000000
B2   B   0.055539225973816   0.611099702541886   0.125524606135795   1.0000000
B2   B   0.722236585595733   0.111113643738796   0.624489367172235   1.0000000
B2   B   0.222227159513222   0.111131086484335   0.125631464874958   1.0000000
B2   B   0.388918036399306   0.611081963600458   0.125606636330121   1.0000000
B2   B   0.722129720413229   0.611066506610536   0.124757816052448   1.0000000
B2   B   0.555570593637596   0.111131086484335   0.125631464874958   1.0000000
B2   B   0.388918036399306   0.611081963600458   0.624393363669941   1.0000000
B2   B   0.888888888888886   0.111111111111114   0.125315722314129   1.0000000
B2   B   0.222222222222221   0.777777777777779   0.624701586441314   1.0000000
B2   B   0.055543724809629   0.277763414404084   0.624489367172235   1.0000000
B2   B   0.388933493389464   0.277870279586783   0.625242183947470   1.0000000
B2   B   0.555570593637596   0.777772840486890   0.624368535125165   1.0000000
B2   B   0.888868913515611   0.777772840486890   0.624368535125165   1.0000000
B2   B   0.722227619294845   0.277772380705115   0.624517644987247   1.0000000
B2   B   0.055539225973816   0.777772856765400   0.125524606135795   1.0000000
B2   B   0.388900297458141   0.777772856765400   0.125524606135795   1.0000000
B2   B   0.222211428077171   0.277772380705116   0.125482355012960   1.0000000
B2   B   0.722227619294845   0.777788571923103   0.125482355012960   1.0000000
B2   B   0.555603452864004   0.277870279586783   0.124757816052448   1.0000000
B2   B   0.888886356261207   0.277763414404084   0.125510632827616   1.0000000
B2   B   0.055548801955315   0.444430937243899   0.624386305028456   1.0000000
B2   B   0.222227143234665   0.944460774026331   0.624475393864043   1.0000000
B2   B   0.555569062755848   0.944451198044648   0.624386305028456   1.0000000
B2   B   0.388933493389452   0.444396547135986   0.625242183947470   1.0000000
B2   B   0.888886356261207   0.944456275190448   0.624489367172235   1.0000000
B2   B   0.055548801955314   0.944451198044648   0.125613694971888   1.0000000
B2   B   0.722129720413229   0.444396547135986   0.625242183947470   1.0000000
B2   B   0.388900297458141   0.944460774026331   0.125524606135795   1.0000000
B2   B   0.222227159513222   0.444429406362130   0.125631464874958   1.0000000
B2   B   0.222227143234665   0.611099702541886   0.125524606135795   1.0000000
B2   B   0.555555555555557   0.444444444444443   0.124583963582303   1.0000000
B2   B   0.722236585595733   0.944456275190448   0.125510632827616   1.0000000
B2   B   0.888868913515611   0.444429406362130   0.125631464874958   1.0000000
B2   B   0.055539225973816   0.611099702541886   0.624475393864043   1.0000000
B2   B   0.222227159513222   0.111131086484334   0.624368535125165   1.0000000
B2   B   0.722129720413229   0.611066506610536   0.625242183947470   1.0000000
B2   B   0.555570593637596   0.111131086484334   0.624368535125165   1.0000000
B2   B   0.888888888888886   0.111111111111114   0.624684277685736   1.0000000


