data_1
_audit_creation_method   'vasp2cif'
_cell_length_a    14.93631414619966
_cell_length_b    14.936314146199727
_cell_length_c    13.341276283792837
_cell_angle_alpha    90.0
_cell_angle_beta    90.0
_cell_angle_gamma    119.99999999999984

_symmetry_space_group_name_H-M    'P 1'
loop_
_atom_site_label
_atom_site_type_symbol
_atom_site_fract_x
_atom_site_fract_y
_atom_site_fract_z
_atom_site_occupancy
Ge2   Ge   0.444444444444443   0.388888888888886   0.375000000000000   1.0000000
N2   N   0.111102528357181   0.055553313143017   0.125033275510086   1.0000000
N2   N   0.611108308946311   0.555568340025323   0.124975582544212   1.0000000
N2   N   0.444450784785836   0.055553313143017   0.125033275510086   1.0000000
N2   N   0.944439225219809   0.555557426933043   0.125004538889406   1.0000000
N2   N   0.777777777777779   0.055555555555557   0.124968965567783   1.0000000
N2   N   0.111111111111114   0.722222222222221   0.625002769462232   1.0000000
N2   N   0.444450784785836   0.722230804976154   0.624966724489914   1.0000000
N2   N   0.277764993308013   0.222225024387025   0.625024417455788   1.0000000
N2   N   0.777780020190319   0.722230804976154   0.624966724489914   1.0000000
N2   N   0.611118454751685   0.222214878581651   0.624954153681620   1.0000000
N2   N   0.944431046356932   0.222218067252596   0.625031909692185   1.0000000
N2   N   0.277775906400292   0.722215131620102   0.125004538889406   1.0000000
N2   N   0.111096423829974   0.222214878581651   0.125045846318380   1.0000000
N2   N   0.444460031079013   0.222225024387025   0.124975582544212   1.0000000
N2   N   0.611118454751685   0.722236909503362   0.125045846318380   1.0000000
N2   N   0.944439225219809   0.722215131620102   0.125004538889406   1.0000000
N2   N   0.777787020895665   0.222218067252596   0.124968090307815   1.0000000
N2   N   0.111118201713234   0.888894108113519   0.624995461110594   1.0000000
N2   N   0.444454690824512   0.888894012078921   0.625021575493250   1.0000000
N2   N   0.277764993308013   0.388873302254316   0.625024417455788   1.0000000
N2   N   0.611108308946311   0.388873302254316   0.625024417455788   1.0000000
N2   N   0.777787020895665   0.888902286976397   0.625031909692185   1.0000000
N2   N   0.944439321254408   0.388878642508817   0.625021575493250   1.0000000
N2   N   0.111102528357181   0.388882548547493   0.125033275510086   1.0000000
N2   N   0.277775906400292   0.888894108113519   0.125004538889406   1.0000000
N2   N   0.611115266080739   0.888902286976397   0.124968090307815   1.0000000
N2   N   0.444444444444443   0.388888888888886   0.122089960553547   1.0000000
N2   N   0.944439321254408   0.888894012078921   0.124978424506750   1.0000000
N2   N   0.777780020190319   0.388882548547493   0.125033275510086   1.0000000
N2   N   0.277780201953029   0.555553131380306   0.624955764283199   1.0000000
N2   N   0.111102528357181   0.055553313143017   0.624966724489914   1.0000000
N2   N   0.611108308946311   0.555568340025323   0.625024417455788   1.0000000
N2   N   0.444450784785836   0.055553313143017   0.624966724489914   1.0000000
N2   N   0.944439225219809   0.555557426933043   0.624995461110594   1.0000000
N2   N   0.111118201713234   0.555557426933043   0.125004538889406   1.0000000
N2   N   0.777777777777779   0.055555555555557   0.625031034432217   1.0000000
N2   N   0.277780201953029   0.055560403906059   0.125044235716801   1.0000000
N2   N   0.444460031079013   0.555568340025323   0.124975582544212   1.0000000
N2   N   0.777772929427277   0.555553131380306   0.125044235716801   1.0000000
N2   N   0.611115266080739   0.055546312437671   0.124968090307815   1.0000000
N2   N   0.444460031079013   0.555568340025323   0.625024417455788   1.0000000
N2   N   0.944431046356932   0.055546312437671   0.124968090307815   1.0000000
N2   N   0.277775906400292   0.722215131620102   0.624995461110594   1.0000000
N2   N   0.111096423829974   0.222214878581651   0.624954153681620   1.0000000
N2   N   0.444460031079013   0.222225024387025   0.625024417455788   1.0000000
N2   N   0.611118454751685   0.722236909503362   0.624954153681620   1.0000000
N2   N   0.944439225219809   0.722215131620102   0.624995461110594   1.0000000
N2   N   0.777787020895665   0.222218067252596   0.625031909692185   1.0000000
N2   N   0.111111111111114   0.722222222222221   0.124997230537768   1.0000000
N2   N   0.444450784785836   0.722230804976154   0.125033275510086   1.0000000
N2   N   0.277764993308013   0.222225024387025   0.124975582544212   1.0000000
N2   N   0.777780020190319   0.722230804976154   0.125033275510086   1.0000000
N2   N   0.611118454751685   0.222214878581651   0.125045846318380   1.0000000
N2   N   0.944431046356932   0.222218067252596   0.124968090307815   1.0000000
N2   N   0.111102528357181   0.388882548547493   0.624966724489914   1.0000000
N2   N   0.277775906400292   0.888894108113519   0.624995461110594   1.0000000
N2   N   0.611115266080739   0.888902286976397   0.625031909692185   1.0000000
N2   N   0.444444444444443   0.388888888888886   0.627910039446453   1.0000000
N2   N   0.944439321254408   0.888894012078921   0.625021575493250   1.0000000
N2   N   0.111118201713234   0.888894108113519   0.125004538889406   1.0000000
N2   N   0.777780020190319   0.388882548547493   0.624966724489914   1.0000000
N2   N   0.444454690824512   0.888894012078921   0.124978424506750   1.0000000
N2   N   0.277764993308013   0.388873302254316   0.124975582544212   1.0000000
N2   N   0.277780201953029   0.555553131380306   0.125044235716801   1.0000000
N2   N   0.611108308946311   0.388873302254316   0.124975582544212   1.0000000
N2   N   0.777787020895665   0.888902286976397   0.124968090307815   1.0000000
N2   N   0.944439321254408   0.388878642508817   0.124978424506750   1.0000000
N2   N   0.111118201713234   0.555557426933043   0.624995461110594   1.0000000
N2   N   0.277780201953029   0.055560403906059   0.624955764283199   1.0000000
N2   N   0.777772929427277   0.555553131380306   0.624955764283199   1.0000000
N2   N   0.611115266080739   0.055546312437671   0.625031909692185   1.0000000
N2   N   0.944431046356932   0.055546312437671   0.625031909692185   1.0000000
N2   N   0.054576424563089   0.110440263644660   0.375000000000000   1.0000000
N2   N   0.556001155796004   0.612002311592008   0.375000000000000   1.0000000
N2   N   0.387599880929521   0.104843660222161   0.375000000000000   1.0000000
N2   N   0.891153888508410   0.612243610920876   0.375000000000000   1.0000000
N2   N   0.722400291683557   0.110933041649779   0.375000000000000   1.0000000
N2   N   0.055557775088894   0.777775558244441   0.875000000000000   1.0000000
N2   N   0.388892322524395   0.777778424211579   0.875000000000000   1.0000000
N2   N   0.222229297899371   0.277781315616354   0.875000000000000   1.0000000
N2   N   0.722222278880771   0.777772455283545   0.875000000000000   1.0000000
N2   N   0.555552017716983   0.277781315616354   0.875000000000000   1.0000000
N2   N   0.888888318911873   0.277776637823754   0.875000000000000   1.0000000
N2   N   0.221776043672825   0.777554688503081   0.375000000000000   1.0000000
N2   N   0.054576424563089   0.277469494251765   0.375000000000000   1.0000000
N2   N   0.378104594696734   0.256209189393477   0.375000000000000   1.0000000
N2   N   0.555863839081571   0.778756908770246   0.375000000000000   1.0000000
N2   N   0.890619378775160   0.779156661867468   0.375000000000000   1.0000000
N2   N   0.722893069688675   0.277469494251765   0.375000000000000   1.0000000
N2   N   0.055554909121756   0.944447231646151   0.875000000000000   1.0000000
N2   N   0.388892322524395   0.944447231646151   0.875000000000000   1.0000000
N2   N   0.222215727725648   0.444445645156688   0.875000000000000   1.0000000
N2   N   0.555570305860751   0.444451819597040   0.875000000000000   1.0000000
N2   N   0.722223942384040   0.944447884768079   0.875000000000000   1.0000000
N2   N   0.888886101687178   0.444441010808934   0.875000000000000   1.0000000
N2   N   0.054176671465867   0.444796050241027   0.375000000000000   1.0000000
N2   N   0.221089722412459   0.942179444824918   0.375000000000000   1.0000000
N2   N   0.555831837212312   0.944582585272821   0.375000000000000   1.0000000
N2   N   0.378104594696734   0.455228738636594   0.375000000000000   1.0000000
N2   N   0.888750748060508   0.944582585272821   0.375000000000000   1.0000000
N2   N   0.728489673111175   0.445733452403808   0.375000000000000   1.0000000
N2   N   0.222218358242870   0.611114975090466   0.875000000000000   1.0000000
N2   N   0.055560878049791   0.111111054452565   0.875000000000000   1.0000000
N2   N   0.555552017716983   0.611104035433964   0.875000000000000   1.0000000
N2   N   0.388887688176641   0.111103415902295   0.875000000000000   1.0000000
N2   N   0.888896616847590   0.611114975090466   0.875000000000000   1.0000000
N2   N   0.055778644830256   0.611557289660511   0.375000000000000   1.0000000
N2   N   0.722223942384040   0.111109390949297   0.875000000000000   1.0000000
N2   N   0.217243779292634   0.104843660222161   0.375000000000000   1.0000000
N2   N   0.387599880929521   0.616089554040701   0.375000000000000   1.0000000
N2   N   0.728489673111175   0.616089554040701   0.375000000000000   1.0000000
N2   N   0.555863839081571   0.110440263644660   0.375000000000000   1.0000000
N2   N   0.388887688176641   0.611117605607689   0.875000000000000   1.0000000
N2   N   0.888532749966215   0.110933041649779   0.375000000000000   1.0000000
N2   N   0.222217783155548   0.777775558244441   0.875000000000000   1.0000000
N2   N   0.055560878049791   0.277783156930562   0.875000000000000   1.0000000
N2   N   0.388881513736289   0.277763027472585   0.875000000000000   1.0000000
N2   N   0.555550176402774   0.777772455283545   0.875000000000000   1.0000000
N2   N   0.888886101687178   0.777778424211579   0.875000000000000   1.0000000
N2   N   0.722222278880771   0.277783156930562   0.875000000000000   1.0000000
N2   N   0.055778644830256   0.777554688503081   0.375000000000000   1.0000000
N2   N   0.388537283092302   0.779156661867468   0.375000000000000   1.0000000
N2   N   0.221331021741327   0.277332177537332   0.375000000000000   1.0000000
N2   N   0.722893069688675   0.778756908770246   0.375000000000000   1.0000000
N2   N   0.556001155796005   0.277332177537332   0.375000000000000   1.0000000
N2   N   0.888750748060508   0.277501496121023   0.375000000000000   1.0000000
N2   N   0.055554909121756   0.444441010808934   0.875000000000000   1.0000000
N2   N   0.222218358242870   0.944436716485739   0.875000000000000   1.0000000
N2   N   0.555556695509582   0.944445014421455   0.875000000000000   1.0000000
N2   N   0.388881513736289   0.444451819597040   0.875000000000000   1.0000000
N2   N   0.888888318911873   0.944445014421455   0.875000000000000   1.0000000
N2   N   0.054176671465867   0.942713954558169   0.375000000000000   1.0000000
N2   N   0.722229917431040   0.444445645156688   0.875000000000000   1.0000000
N2   N   0.388537283092302   0.942713954558169   0.375000000000000   1.0000000
N2   N   0.217243779292634   0.445733452403808   0.375000000000000   1.0000000
N2   N   0.221089722412459   0.612243610920876   0.375000000000000   1.0000000
N2   N   0.577124143939860   0.455228738636594   0.375000000000000   1.0000000
N2   N   0.722400291683557   0.944800583367114   0.375000000000000   1.0000000
N2   N   0.890619378775160   0.444796050241027   0.375000000000000   1.0000000
N2   N   0.055557775088894   0.611115550177788   0.875000000000000   1.0000000
N2   N   0.222215727725648   0.111103415902295   0.875000000000000   1.0000000
N2   N   0.722229917431040   0.611117605607689   0.875000000000000   1.0000000
N2   N   0.555550176402774   0.111111054452565   0.875000000000000   1.0000000
N2   N   0.888885448565250   0.111109390949297   0.875000000000000   1.0000000
B2   B   0.107837880726733   0.052471732788570   0.375000000000000   1.0000000
B2   B   0.619271560522738   0.562644509775942   0.375000000000000   1.0000000
B2   B   0.444633852061838   0.052471732788570   0.375000000000000   1.0000000
B2   B   0.945418535839625   0.555891218256904   0.375000000000000   1.0000000
B2   B   0.777777777777779   0.055555555555557   0.375000000000000   1.0000000
B2   B   0.111111111111114   0.722222222222221   0.875000000000000   1.0000000
B2   B   0.444438258860026   0.722214494346402   0.875000000000000   1.0000000
B2   B   0.277760478657477   0.222253359121134   0.875000000000000   1.0000000
B2   B   0.777776235486379   0.722214494346402   0.875000000000000   1.0000000
B2   B   0.611074153350084   0.222259179983252   0.875000000000000   1.0000000
B2   B   0.944422871914998   0.222256080675788   0.875000000000000   1.0000000
B2   B   0.277442115076432   0.722860650916058   0.375000000000000   1.0000000
B2   B   0.110132616188883   0.221732974761106   0.375000000000000   1.0000000
B2   B   0.443372949253204   0.214061772810598   0.375000000000000   1.0000000
B2   B   0.611600358572230   0.723200717144453   0.375000000000000   1.0000000
B2   B   0.945418535839625   0.722860650916058   0.375000000000000   1.0000000
B2   B   0.777964197076546   0.221813785395772   0.375000000000000   1.0000000
B2   B   0.111169920230843   0.888916473873033   0.875000000000000   1.0000000
B2   B   0.444497223745859   0.888915278539594   0.875000000000000   1.0000000
B2   B   0.277760478657477   0.388840452869671   0.875000000000000   1.0000000
B2   B   0.611079974212201   0.388840452869671   0.875000000000000   1.0000000
B2   B   0.777833208760790   0.888910461418331   0.875000000000000   1.0000000
B2   B   0.944418054793735   0.388836109587470   0.875000000000000   1.0000000
B2   B   0.107837880726733   0.388699481271491   0.375000000000000   1.0000000
B2   B   0.277442115076432   0.887914797493703   0.375000000000000   1.0000000
B2   B   0.611519547937564   0.889483745014103   0.375000000000000   1.0000000
B2   B   0.944244751677233   0.889088581656096   0.375000000000000   1.0000000
B2   B   0.780861600544766   0.388699481271491   0.375000000000000   1.0000000
B2   B   0.277748277981277   0.555585055352059   0.875000000000000   1.0000000
B2   B   0.111118838986932   0.055557097846958   0.875000000000000   1.0000000
B2   B   0.611079974212201   0.555572854675859   0.875000000000000   1.0000000
B2   B   0.444438258860026   0.055557097846958   0.875000000000000   1.0000000
B2   B   0.944416859460296   0.555586779691137   0.875000000000000   1.0000000
B2   B   0.110472682417278   0.555891218256904   0.375000000000000   1.0000000
B2   B   0.777777777777779   0.055555555555557   0.875000000000000   1.0000000
B2   B   0.276038603530566   0.052077207061133   0.375000000000000   1.0000000
B2   B   0.443372949253204   0.562644509775942   0.375000000000000   1.0000000
B2   B   0.781256126272203   0.557294729802770   0.375000000000000   1.0000000
B2   B   0.611519547937564   0.055369136256789   0.375000000000000   1.0000000
B2   B   0.444492880463658   0.555572854675859   0.875000000000000   1.0000000
B2   B   0.943849588319226   0.055369136256789   0.375000000000000   1.0000000
B2   B   0.277746553642199   0.722163413102492   0.875000000000000   1.0000000
B2   B   0.111185026633175   0.222259179983252   0.875000000000000   1.0000000
B2   B   0.444492880463658   0.222253359121134   0.875000000000000   1.0000000
B2   B   0.611074153350084   0.722148306700161   0.875000000000000   1.0000000
B2   B   0.944416859460296   0.722163413102492   0.875000000000000   1.0000000
B2   B   0.777833208760790   0.222256080675788   0.875000000000000   1.0000000
B2   B   0.111111111111114   0.722222222222221   0.375000000000000   1.0000000
B2   B   0.444633852061838   0.725495452606604   0.375000000000000   1.0000000
B2   B   0.270688823557394   0.214061772810598   0.375000000000000   1.0000000
B2   B   0.780861600544766   0.725495452606604   0.375000000000000   1.0000000
B2   B   0.611600358572230   0.221732974761106   0.375000000000000   1.0000000
B2   B   0.943849588319226   0.221813785395772   0.375000000000000   1.0000000
B2   B   0.111118838986932   0.388895074473303   0.875000000000000   1.0000000
B2   B   0.277746553642199   0.888916473873033   0.875000000000000   1.0000000
B2   B   0.611077252657548   0.888910461418331   0.875000000000000   1.0000000
B2   B   0.444444444444443   0.388888888888886   0.875000000000000   1.0000000
B2   B   0.944418054793735   0.888915278539594   0.875000000000000   1.0000000
B2   B   0.110472682417278   0.887914797493703   0.375000000000000   1.0000000
B2   B   0.777776235486379   0.388895074473303   0.875000000000000   1.0000000
B2   B   0.444843829978864   0.889088581656096   0.375000000000000   1.0000000
B2   B   0.270688823557394   0.389960384080125   0.375000000000000   1.0000000
B2   B   0.276038603530566   0.557294729802770   0.375000000000000   1.0000000
B2   B   0.619271560522738   0.389960384080125   0.375000000000000   1.0000000
B2   B   0.777964197076546   0.889483745014103   0.375000000000000   1.0000000
B2   B   0.944244751677233   0.388489503354465   0.375000000000000   1.0000000
B2   B   0.111169920230843   0.555586779691137   0.875000000000000   1.0000000
B2   B   0.277748277981277   0.055496555962554   0.875000000000000   1.0000000
B2   B   0.777836777370781   0.555585055352059   0.875000000000000   1.0000000
B2   B   0.611077252657548   0.055500124572546   0.875000000000000   1.0000000
B2   B   0.944422871914998   0.055500124572546   0.875000000000000   1.0000000
B2   B   0.055579028447635   0.111085106634138   0.125030686736218   1.0000000
B2   B   0.555552579331962   0.611105158663924   0.125033382736726   1.0000000
B2   B   0.388938266969994   0.111111306603746   0.125087400519293   1.0000000
B2   B   0.888866028059486   0.611099680696414   0.125019917620856   1.0000000
B2   B   0.722253308376369   0.111080024956967   0.124993100943789   1.0000000
B2   B   0.055583605501094   0.777749727832241   0.624991708339279   1.0000000
B2   B   0.388927422044816   0.777745644539401   0.624983907062392   1.0000000
B2   B   0.222228174669411   0.277780754001373   0.624966617263274   1.0000000
B2   B   0.722248226699197   0.777754304885700   0.624969313263781   1.0000000
B2   B   0.555552579331962   0.277780754001373   0.624966617263274   1.0000000
B2   B   0.888885942708410   0.277771885416825   0.625006403622481   1.0000000
B2   B   0.222166122331147   0.777749727832241   0.125008291660721   1.0000000
B2   B   0.055579028447635   0.277827255146833   0.125030686736218   1.0000000
B2   B   0.388938654755643   0.277877309511294   0.124123667245078   1.0000000
B2   B   0.555506078186503   0.777754304885700   0.125030686736218   1.0000000
B2   B   0.888818222494577   0.777745644539401   0.125016092937608   1.0000000
B2   B   0.722248226699197   0.277827255146833   0.125030686736218   1.0000000
B2   B   0.055587688793935   0.944515110838751   0.624983907062392   1.0000000
B2   B   0.388927422044816   0.944515110838751   0.624983907062392   1.0000000
B2   B   0.222173039633744   0.444395066363335   0.624912599480708   1.0000000
B2   B   0.555456023822042   0.444394678577685   0.625876332754922   1.0000000
B2   B   0.722253308376369   0.944506616752737   0.625006899056212   1.0000000
B2   B   0.888818222494577   0.444405911288512   0.624983907062392   1.0000000
B2   B   0.055587688793935   0.444405911288512   0.125016092937608   1.0000000
B2   B   0.222233652636921   0.944467305273842   0.125019917620856   1.0000000
B2   B   0.555561447916510   0.944447390624919   0.124993596377519   1.0000000
B2   B   0.388938654755643   0.444394678577685   0.124123667245078   1.0000000
B2   B   0.888885942708410   0.944447390624919   0.124993596377519   1.0000000
B2   B   0.722222026729590   0.444395066363335   0.125087400519293   1.0000000
B2   B   0.222233652636921   0.611099680696414   0.624980082379145   1.0000000
B2   B   0.055579028447635   0.111085106634138   0.624969313263781   1.0000000
B2   B   0.555552579331962   0.611105158663924   0.624966617263274   1.0000000
B2   B   0.388938266969994   0.111111306603746   0.624912599480708   1.0000000
B2   B   0.888866028059486   0.611099680696414   0.624980082379145   1.0000000
B2   B   0.055583605501094   0.611167211002188   0.125008291660721   1.0000000
B2   B   0.722253308376369   0.111080024956967   0.625006899056212   1.0000000
B2   B   0.222173039633744   0.111111306603746   0.125087400519293   1.0000000
B2   B   0.388938266969994   0.611160293699591   0.125087400519293   1.0000000
B2   B   0.722222026729590   0.611160293699591   0.125087400519293   1.0000000
B2   B   0.555506078186503   0.111085106634138   0.125030686736218   1.0000000
B2   B   0.388938266969994   0.611160293699591   0.624912599480708   1.0000000
B2   B   0.888826716580591   0.111080024956967   0.124993100943789   1.0000000
B2   B   0.222166122331147   0.777749727832241   0.624991708339279   1.0000000
B2   B   0.055579028447635   0.277827255146833   0.624969313263781   1.0000000
B2   B   0.388938654755643   0.277877309511294   0.625876332754922   1.0000000
B2   B   0.555506078186503   0.777754304885700   0.624969313263781   1.0000000
B2   B   0.888818222494577   0.777745644539401   0.624983907062392   1.0000000
B2   B   0.722248226699197   0.277827255146833   0.624969313263781   1.0000000
B2   B   0.055583605501094   0.777749727832241   0.125008291660721   1.0000000
B2   B   0.388927422044816   0.777745644539401   0.125016092937608   1.0000000
B2   B   0.222228174669411   0.277780754001373   0.125033382736726   1.0000000
B2   B   0.722248226699197   0.777754304885700   0.125030686736218   1.0000000
B2   B   0.555552579331962   0.277780754001373   0.125033382736726   1.0000000
B2   B   0.888885942708410   0.277771885416825   0.124993596377519   1.0000000
B2   B   0.055587688793935   0.444405911288512   0.624983907062392   1.0000000
B2   B   0.222233652636921   0.944467305273842   0.624980082379145   1.0000000
B2   B   0.555561447916510   0.944447390624919   0.625006403622481   1.0000000
B2   B   0.388938654755643   0.444394678577685   0.625876332754922   1.0000000
B2   B   0.888885942708410   0.944447390624919   0.625006403622481   1.0000000
B2   B   0.055587688793935   0.944515110838751   0.125016092937608   1.0000000
B2   B   0.722222026729590   0.444395066363335   0.624912599480708   1.0000000
B2   B   0.388927422044816   0.944515110838751   0.125016092937608   1.0000000
B2   B   0.222173039633744   0.444395066363335   0.125087400519293   1.0000000
B2   B   0.222233652636921   0.611099680696414   0.125019917620856   1.0000000
B2   B   0.555456023822042   0.444394678577685   0.124123667245078   1.0000000
B2   B   0.722253308376369   0.944506616752737   0.124993100943789   1.0000000
B2   B   0.888818222494577   0.444405911288512   0.125016092937608   1.0000000
B2   B   0.055583605501094   0.611167211002188   0.624991708339279   1.0000000
B2   B   0.222173039633744   0.111111306603746   0.624912599480708   1.0000000
B2   B   0.722222026729590   0.611160293699591   0.624912599480708   1.0000000
B2   B   0.555506078186503   0.111085106634138   0.624969313263781   1.0000000
B2   B   0.888826716580591   0.111080024956967   0.625006899056212   1.0000000


