data_1
_audit_creation_method   'vasp2cif'
_cell_length_a    17.52789999999977
_cell_length_b    17.52789999999977
_cell_length_c    15.0
_cell_angle_alpha    90.0
_cell_angle_beta    90.0
_cell_angle_gamma    119.99999999999916

_symmetry_space_group_name_H-M    'P 1'
loop_
_atom_site_label
_atom_site_type_symbol
_atom_site_fract_x
_atom_site_fract_y
_atom_site_fract_z
_atom_site_occupancy
B2   B   0.905028971539222   0.952622024260458   0.106025559846029   1.0000000
B2   B   0.905267452428122   0.095537515690896   0.105702155729319   1.0000000
B2   B   0.905285694808968   0.238313857759880   0.105779669254993   1.0000000
B2   B   0.905034144032392   0.380989382034353   0.106178681510161   1.0000000
B2   B   0.904510080791320   0.523660785479107   0.107255669530155   1.0000000
B2   B   0.904222990575794   0.666388987490660   0.107515538122695   1.0000000
B2   B   0.904512396849503   0.809415557434646   0.107161014451104   1.0000000
B2   B   0.047678356950676   0.952424334900148   0.106494800723574   1.0000000
B2   B   0.048182240513129   0.095604857758527   0.106934870808799   1.0000000
B2   B   0.048326949263906   0.238434017989273   0.107620937992708   1.0000000
B2   B   0.048203182115610   0.381139382840512   0.107022584047357   1.0000000
B2   B   0.047674766377583   0.523808124873056   0.106550769808026   1.0000000
B2   B   0.047347350386267   0.666536805308942   0.106586473227326   1.0000000
B2   B   0.047343735944067   0.809368267377496   0.106591092255230   1.0000000
B2   B   0.190367045320240   0.952265810607837   0.106506926358735   1.0000000
B2   B   0.190822525077894   0.095416056330943   0.108048137012152   1.0000000
B2   B   0.191408494507411   0.238644168484354   0.111419425554436   1.0000000
B2   B   0.191431852524843   0.381337086253384   0.111382900221959   1.0000000
B2   B   0.190835583355772   0.523972309869827   0.107963193610155   1.0000000
B2   B   0.190374949167217   0.666671460280663   0.106339539360437   1.0000000
B2   B   0.190269810417749   0.809421634887037   0.106039965292254   1.0000000
B2   B   0.333229830655541   0.952235296774626   0.105634062823076   1.0000000
B2   B   0.333318274108133   0.094977570483705   0.108500241512975   1.0000000
B2   B   0.333831680627555   0.238121420883154   0.116161421215311   1.0000000
B2   B   0.334537479777285   0.381553044586929   0.125882246145878   1.0000000
B2   B   0.333865508802352   0.524275027174446   0.115921695481538   1.0000000
B2   B   0.333342484772077   0.666913552882559   0.108157818416557   1.0000000
B2   B   0.333238739229332   0.809579414684038   0.105443323713342   1.0000000
B2   B   0.476217877293945   0.952409854394106   0.104572973532500   1.0000000
B2   B   0.476201634091890   0.094848376790108   0.105534427913891   1.0000000
B2   B   0.476198812783313   0.236962279447870   0.113098783653368   1.0000000
B2   B   0.474911586941675   0.373091726206404   0.150720607910196   1.0000000
B2   B   0.475002395006486   0.530386878727726   0.150297183348188   1.0000000
B2   B   0.476220140715335   0.667805945790388   0.112742931075686   1.0000000
B2   B   0.476222139940232   0.809954916368355   0.105270301057016   1.0000000
B2   B   0.619264257918834   0.952654779412011   0.104582278883830   1.0000000
B2   B   0.619249544772823   0.095198089676835   0.104676565755308   1.0000000
B2   B   0.619169209177175   0.237656709944174   0.107125763976644   1.0000000
B2   B   0.618637150759538   0.379657743976005   0.114552315695230   1.0000000
B2   B   0.619564061155227   0.524086623795002   0.107339143214204   1.0000000
B2   B   0.618660607413958   0.667564775307117   0.114267502671716   1.0000000
B2   B   0.619187158542665   0.810097516439243   0.106900580994722   1.0000000
B2   B   0.762219309529856   0.952699411600871   0.105363098393717   1.0000000
B2   B   0.762294523226966   0.095443934296365   0.104888434404379   1.0000000
B2   B   0.762220336588905   0.238093219875219   0.105483641205351   1.0000000
B2   B   0.761920625716124   0.380700099791831   0.107374420439251   1.0000000
B2   B   0.761227517263726   0.523354004256638   0.109352751215058   1.0000000
B2   B   0.761248366657909   0.666454404583799   0.109263292358428   1.0000000
B2   B   0.761933010852716   0.809802354516097   0.107180228166450   1.0000000
N2   N   0.952356137124465   0.904721794577601   0.106465715976150   1.0000000
N2   N   0.952862887427982   0.047906688578120   0.106008328797988   1.0000000
N2   N   0.953011447944547   0.190787532377942   0.106146860610138   1.0000000
N2   N   0.952875249686019   0.333536097267171   0.106140679379955   1.0000000
N2   N   0.952358268875961   0.476205754913542   0.106577319004519   1.0000000
N2   N   0.951968736716016   0.618880061018859   0.107120005334856   1.0000000
N2   N   0.951966066991407   0.761648435389002   0.107081707825131   1.0000000
N2   N   0.095085490599739   0.904622581612453   0.106426008620299   1.0000000
N2   N   0.095540696287798   0.047759354133762   0.106838018986040   1.0000000
N2   N   0.096076678474087   0.190948696291786   0.108247037307649   1.0000000
N2   N   0.096090177152732   0.333683144674883   0.108274592754103   1.0000000
N2   N   0.095551921144745   0.476347712552888   0.106898105984665   1.0000000
N2   N   0.095087941056867   0.619022741063786   0.106390619533725   1.0000000
N2   N   0.094964904087800   0.761762708058648   0.106387253577282   1.0000000
N2   N   0.237946387481505   0.904628732456253   0.106034434287626   1.0000000
N2   N   0.238107791822022   0.047490377915535   0.107457901946943   1.0000000
N2   N   0.238712187038853   0.190766473419269   0.110696398167880   1.0000000
N2   N   0.239583995880330   0.334069553687745   0.115247236218585   1.0000000
N2   N   0.238734132587371   0.476512821879650   0.110601161697731   1.0000000
N2   N   0.238124921742552   0.619184675436205   0.107231900494188   1.0000000
N2   N   0.237953432312696   0.761893227720241   0.105880093689242   1.0000000
N2   N   0.380935735588234   0.904761631923353   0.104992918626191   1.0000000
N2   N   0.380945841220290   0.047398581887363   0.106229324264590   1.0000000
N2   N   0.381021963670867   0.190036502433857   0.112774922211556   1.0000000
N2   N   0.381778851196521   0.333007861075060   0.128769497285962   1.0000000
N2   N   0.381828254193933   0.477345299491563   0.128510000193630   1.0000000
N2   N   0.381043874191308   0.619553835636809   0.112433392825743   1.0000000
N2   N   0.380960760199659   0.762130997460055   0.105888068631964   1.0000000
N2   N   0.523985211326021   0.905056865200927   0.104414457114377   1.0000000
N2   N   0.523974364027697   0.047525090724520   0.104542856024644   1.0000000
N2   N   0.523965551083428   0.189919512202727   0.106746403960530   1.0000000
N2   N   0.524131600122326   0.331518865818049   0.123562713178135   1.0000000
N2   N   0.524157895294952   0.621187344058908   0.123153145121390   1.0000000
N2   N   0.523983144432751   0.762630810140246   0.106469543207114   1.0000000
N2   N   0.666972272954083   0.905185648724969   0.105263957704275   1.0000000
N2   N   0.667015783329655   0.047809754290249   0.104493796601983   1.0000000
N2   N   0.666967373943852   0.190371208608926   0.105410510579290   1.0000000
N2   N   0.666721365282049   0.332902851247244   0.108824526552323   1.0000000
N2   N   0.665188972385471   0.475128959343784   0.110579148295255   1.0000000
N2   N   0.665225945692869   0.618663860809687   0.110431824666550   1.0000000
N2   N   0.666737768603493   0.762404787794877   0.108573921031479   1.0000000
N2   N   0.809753599849146   0.904995724803163   0.105819727795457   1.0000000
N2   N   0.809980753514964   0.047908476120184   0.105132789843882   1.0000000
N2   N   0.809992058010491   0.190658907521809   0.105195188651326   1.0000000
N2   N   0.809752606686700   0.333335584189895   0.105985642839205   1.0000000
N2   N   0.809085548040162   0.475975683926919   0.108202472187700   1.0000000
N2   N   0.808642278538704   0.618602001635634   0.108494875000507   1.0000000
N2   N   0.809092473034921   0.761686547073642   0.108059958243975   1.0000000
Sb2   Sb   0.514019730177645   0.471450106550635   0.265445097277885   1.0000000


