data_1
_audit_creation_method   'vasp2cif'
_cell_length_a    14.93631414619966
_cell_length_b    14.936314146199727
_cell_length_c    13.341276283792837
_cell_angle_alpha    90.0
_cell_angle_beta    90.0
_cell_angle_gamma    119.99999999999984

_symmetry_space_group_name_H-M    'P 1'
loop_
_atom_site_label
_atom_site_type_symbol
_atom_site_fract_x
_atom_site_fract_y
_atom_site_fract_z
_atom_site_occupancy
N2   N   0.441600424555031   0.387466878944180   0.375000000000000   1.0000000
N2   N   0.111035431044263   0.055543276392350   0.124934779890850   1.0000000
N2   N   0.611106205670551   0.555534909895979   0.124374636849088   1.0000000
N2   N   0.444419780723570   0.055570365441728   0.124904990530245   1.0000000
N2   N   0.944432264442287   0.555539951728228   0.124895765778630   1.0000000
N2   N   0.777685775852540   0.055509554592937   0.124923252711870   1.0000000
N2   N   0.111099249063584   0.722216291198456   0.625109299757382   1.0000000
N2   N   0.444419780723570   0.722182748615177   0.625095009469755   1.0000000
N2   N   0.277664950302370   0.222201956374397   0.625035239242771   1.0000000
N2   N   0.777753512290835   0.722208223156531   0.625175738798529   1.0000000
N2   N   0.611068831175312   0.222240150239200   0.625026723102149   1.0000000
N2   N   0.944335465764665   0.222163396319628   0.625151490038843   1.0000000
N2   N   0.277763990336007   0.722198228860626   0.124881234742077   1.0000000
N2   N   0.110960689161751   0.222147011247540   0.124809616634128   1.0000000
N2   N   0.444423362561789   0.222237347790361   0.124739997424523   1.0000000
N2   N   0.611068831175312   0.722162014269439   0.124973276897851   1.0000000
N2   N   0.944432264442287   0.722225646047393   0.124895765778630   1.0000000
N2   N   0.777709121079153   0.222196667594034   0.124938985257880   1.0000000
N2   N   0.111088553573036   0.888902986203139   0.625116741078646   1.0000000
N2   N   0.444418795050581   0.888876064191955   0.625099595665580   1.0000000
N2   N   0.277664950302370   0.388796327261301   0.625035239242771   1.0000000
N2   N   0.611106205670551   0.388904629107900   0.625625363150911   1.0000000
N2   N   0.777709121079153   0.888845786818448   0.625061014742120   1.0000000
N2   N   0.944398140951250   0.388851770463958   0.625112845050711   1.0000000
N2   N   0.111035431044263   0.388825487985242   0.124934779890850   1.0000000
N2   N   0.277763990336007   0.888899094808709   0.124881234742077   1.0000000
N2   N   0.611054070868012   0.888846094888230   0.124954279621079   1.0000000
N2   N   0.444307389382539   0.388820361357934   0.123823398990597   1.0000000
N2   N   0.944398140951250   0.888879703820620   0.124887154949289   1.0000000
N2   N   0.777753512290835   0.388878622467633   0.124824261201471   1.0000000
N2   N   0.277745293542652   0.555496699006835   0.625080922970753   1.0000000
N2   N   0.111035431044263   0.055543276392350   0.625065220109151   1.0000000
N2   N   0.611106205670551   0.555534909895979   0.625625363150911   1.0000000
N2   N   0.444419780723570   0.055570365441729   0.625095009469755   1.0000000
N2   N   0.944432264442287   0.555539951728228   0.625104234221369   1.0000000
N2   N   0.111088553573036   0.555518900703227   0.124883258921354   1.0000000
N2   N   0.777685775852540   0.055509554592937   0.625076747288130   1.0000000
N2   N   0.277745293542652   0.055581927869153   0.124919077029246   1.0000000
N2   N   0.444423362561789   0.555519348104764   0.124739997424523   1.0000000
N2   N   0.777780093632823   0.555556713483080   0.124817520571843   1.0000000
N2   N   0.611054070868012   0.055541309313110   0.124954279621079   1.0000000
N2   N   0.444423362561789   0.555519348104764   0.625260002575477   1.0000000
N2   N   0.944335465764665   0.055505402778373   0.124848509961157   1.0000000
N2   N   0.277763990336007   0.722198228860626   0.625118765257923   1.0000000
N2   N   0.110960689161751   0.222147011247540   0.625190383365873   1.0000000
N2   N   0.444423362561789   0.222237347790361   0.625260002575477   1.0000000
N2   N   0.611068831175312   0.722162014269439   0.625026723102149   1.0000000
N2   N   0.944432264442287   0.722225646047393   0.625104234221369   1.0000000
N2   N   0.777709121079153   0.222196667594034   0.625061014742120   1.0000000
N2   N   0.111099249063584   0.722216291198456   0.124890700242619   1.0000000
N2   N   0.444419780723570   0.722182748615177   0.124904990530245   1.0000000
N2   N   0.277664950302370   0.222201956374397   0.124964760757229   1.0000000
N2   N   0.777753512290835   0.722208223156531   0.124824261201471   1.0000000
N2   N   0.611068831175312   0.222240150239200   0.124973276897851   1.0000000
N2   N   0.944335465764665   0.222163396319628   0.124848509961157   1.0000000
N2   N   0.111035431044263   0.388825487985242   0.625065220109151   1.0000000
N2   N   0.277763990336007   0.888899094808709   0.625118765257923   1.0000000
N2   N   0.611054070868012   0.888846094888230   0.625045720378921   1.0000000
N2   N   0.444307389382539   0.388820361357934   0.626176601009403   1.0000000
N2   N   0.944398140951250   0.888879703820620   0.625112845050711   1.0000000
N2   N   0.111088553573036   0.888902986203139   0.124883258921354   1.0000000
N2   N   0.777753512290835   0.388878622467633   0.625175738798529   1.0000000
N2   N   0.444418795050581   0.888876064191955   0.124900404334419   1.0000000
N2   N   0.277664950302370   0.388796327261301   0.124964760757229   1.0000000
N2   N   0.277745293542652   0.555496699006835   0.124919077029246   1.0000000
N2   N   0.611106205670551   0.388904629107900   0.124374636849088   1.0000000
N2   N   0.777709121079153   0.888845786818448   0.124938985257880   1.0000000
N2   N   0.944398140951250   0.388851770463958   0.124887154949289   1.0000000
N2   N   0.111088553573036   0.555518900703227   0.625116741078646   1.0000000
N2   N   0.277745293542652   0.055581927869153   0.625080922970753   1.0000000
N2   N   0.777780093632823   0.555556713483080   0.625182479428157   1.0000000
N2   N   0.611054070868012   0.055541309313110   0.625045720378921   1.0000000
N2   N   0.944335465764665   0.055505402778373   0.625151490038843   1.0000000
N2   N   0.052255811443798   0.109053995382314   0.375000000000000   1.0000000
N2   N   0.556233543116046   0.596850377756699   0.375000000000000   1.0000000
N2   N   0.389948840581626   0.116378420559229   0.375000000000000   1.0000000
N2   N   0.894851631492601   0.614092482412970   0.375000000000000   1.0000000
N2   N   0.720486463640810   0.111552085680444   0.375000000000000   1.0000000
N2   N   0.055562795631059   0.777780239303721   0.875000000000000   1.0000000
N2   N   0.388888630439472   0.777780681767984   0.875000000000000   1.0000000
N2   N   0.222225608647233   0.277779470990284   0.875000000000000   1.0000000
N2   N   0.722226071624440   0.777776714912445   0.875000000000000   1.0000000
N2   N   0.555557815564018   0.277777748985865   0.875000000000000   1.0000000
N2   N   0.888895519604475   0.277785329901814   0.875000000000000   1.0000000
N2   N   0.225067220975483   0.779200277154410   0.375000000000000   1.0000000
N2   N   0.052255811443798   0.276535149394819   0.375000000000000   1.0000000
N2   N   0.383334817379757   0.280021305289391   0.375000000000000   1.0000000
N2   N   0.555712780519054   0.772130478541210   0.375000000000000   1.0000000
N2   N   0.890744741709985   0.778062311773402   0.375000000000000   1.0000000
N2   N   0.721175483426591   0.280653236148984   0.375000000000000   1.0000000
N2   N   0.055560626364722   0.944442912099821   0.875000000000000   1.0000000
N2   N   0.388888630439472   0.944441282004824   0.875000000000000   1.0000000
N2   N   0.222223676910024   0.444450046754070   0.875000000000000   1.0000000
N2   N   0.555560412352514   0.444446872842921   0.875000000000000   1.0000000
N2   N   0.722222917828719   0.944443277073089   0.875000000000000   1.0000000
N2   N   0.888900195346275   0.444453161890834   0.875000000000000   1.0000000
N2   N   0.055670169820269   0.444543383025949   0.375000000000000   1.0000000
N2   N   0.224239683223870   0.946528657010374   0.375000000000000   1.0000000
N2   N   0.555677957123704   0.944505645228515   0.375000000000000   1.0000000
N2   N   0.383334817379757   0.436646845423702   0.375000000000000   1.0000000
N2   N   0.886865757471119   0.942361370696310   0.375000000000000   1.0000000
N2   N   0.726876240376862   0.449078809789341   0.375000000000000   1.0000000
N2   N   0.222222184517746   0.611115985515733   0.875000000000000   1.0000000
N2   N   0.055559817280300   0.111109753188200   0.875000000000000   1.0000000
N2   N   0.555557815564018   0.611113399911489   0.875000000000000   1.0000000
N2   N   0.388886658077037   0.111102970188288   0.875000000000000   1.0000000
N2   N   0.888904464164614   0.611118898748978   0.875000000000000   1.0000000
N2   N   0.059009756495168   0.612516626786417   0.375000000000000   1.0000000
N2   N   0.722222917828719   0.111112974088968   0.875000000000000   1.0000000
N2   N   0.220669430164011   0.110914194568523   0.375000000000000   1.0000000
N2   N   0.389948840581626   0.606903753355741   0.375000000000000   1.0000000
N2   N   0.726876240376862   0.611130763920856   0.375000000000000   1.0000000
N2   N   0.555712780519054   0.116915635311181   0.375000000000000   1.0000000
N2   N   0.388886658077037   0.611117021222092   0.875000000000000   1.0000000
N2   N   0.886021658654066   0.109677495993704   0.375000000000000   1.0000000
N2   N   0.222223448509251   0.777778390921295   0.875000000000000   1.0000000
N2   N   0.055559817280300   0.277783397425435   0.875000000000000   1.0000000
N2   N   0.388889061888894   0.277771700051651   0.875000000000000   1.0000000
N2   N   0.555554700113933   0.777778051415431   0.875000000000000   1.0000000
N2   N   0.888900195346275   0.777780366788778   0.875000000000000   1.0000000
N2   N   0.722226071624440   0.277782690045331   0.875000000000000   1.0000000
N2   N   0.059009756495168   0.779826463042086   0.375000000000000   1.0000000
N2   N   0.390681307294411   0.777033188761152   0.375000000000000   1.0000000
N2   N   0.216426663409827   0.274879998371581   0.375000000000000   1.0000000
N2   N   0.721175483426591   0.773855580610942   0.375000000000000   1.0000000
N2   N   0.556233543116045   0.292716498692681   0.375000000000000   1.0000000
N2   N   0.886865757471119   0.277837720108145   0.375000000000000   1.0000000
N2   N   0.055560626364722   0.444451047598229   0.875000000000000   1.0000000
N2   N   0.222222184517746   0.944439532335348   0.875000000000000   1.0000000
N2   N   0.555553206953415   0.944443270143371   0.875000000000000   1.0000000
N2   N   0.388889061888894   0.444450695170580   0.875000000000000   1.0000000
N2   N   0.888895519604475   0.944443523035997   0.875000000000000   1.0000000
N2   N   0.055670169820269   0.944460120127649   0.375000000000000   1.0000000
N2   N   0.722234582227552   0.444452892738076   0.875000000000000   1.0000000
N2   N   0.390681307294411   0.946981451866595   0.375000000000000   1.0000000
N2   N   0.220669430164011   0.443088568928824   0.375000000000000   1.0000000
N2   N   0.224239683223870   0.611044359546832   0.375000000000000   1.0000000
N2   N   0.720486463640810   0.942267711293703   0.375000000000000   1.0000000
N2   N   0.890744741709985   0.446015763269919   0.375000000000000   1.0000000
N2   N   0.055562795631059   0.611115889660675   0.875000000000000   1.0000000
N2   N   0.222223676910024   0.111106963489290   0.875000000000000   1.0000000
N2   N   0.722234582227552   0.611115022822812   0.875000000000000   1.0000000
N2   N   0.555554700113933   0.111109982031838   0.875000000000000   1.0000000
N2   N   0.888893370671995   0.111113352002669   0.875000000000000   1.0000000
B2   B   0.109925244172831   0.055298421926620   0.375000000000000   1.0000000
B2   B   0.615750485778341   0.537338906912393   0.375000000000000   1.0000000
B2   B   0.444760662894865   0.059807032126759   0.375000000000000   1.0000000
B2   B   0.948182519390769   0.557118461867627   0.375000000000000   1.0000000
B2   B   0.775011957473219   0.054172645403277   0.375000000000000   1.0000000
B2   B   0.111113322029610   0.722223327681469   0.875000000000000   1.0000000
B2   B   0.444439311939468   0.722188869543376   0.875000000000000   1.0000000
B2   B   0.277842302001594   0.222267499492448   0.875000000000000   1.0000000
B2   B   0.777747759269680   0.722169342480485   0.875000000000000   1.0000000
B2   B   0.611084077900885   0.222260207581087   0.875000000000000   1.0000000
B2   B   0.944466171798354   0.222241060938548   0.875000000000000   1.0000000
B2   B   0.279824151223247   0.722336658675417   0.375000000000000   1.0000000
B2   B   0.107007227546974   0.220170280440151   0.375000000000000   1.0000000
B2   B   0.444349241040660   0.230491643031823   0.375000000000000   1.0000000
B2   B   0.609567844021450   0.711558600674151   0.375000000000000   1.0000000
B2   B   0.948182519390769   0.724397390856478   0.375000000000000   1.0000000
B2   B   0.775407305784154   0.223255415752085   0.375000000000000   1.0000000
B2   B   0.111122060998894   0.888895134664943   0.875000000000000   1.0000000
B2   B   0.444435713772249   0.888884523552788   0.875000000000000   1.0000000
B2   B   0.277842302001594   0.388908135842475   0.875000000000000   1.0000000
B2   B   0.611076998938732   0.388910299034126   0.875000000000000   1.0000000
B2   B   0.777765429102392   0.888853348200903   0.875000000000000   1.0000000
B2   B   0.944449885811586   0.388908502747594   0.875000000000000   1.0000000
B2   B   0.109925244172831   0.387960155579540   0.375000000000000   1.0000000
B2   B   0.279824151223247   0.890820825881158   0.375000000000000   1.0000000
B2   B   0.609556415333528   0.885228146379946   0.375000000000000   1.0000000
B2   B   0.944493660995006   0.888522050070890   0.375000000000000   1.0000000
B2   B   0.779111084101733   0.391712406817748   0.375000000000000   1.0000000
B2   B   0.277805205644217   0.555549347912679   0.875000000000000   1.0000000
B2   B   0.111151222295425   0.055577979220531   0.875000000000000   1.0000000
B2   B   0.611076998938732   0.555500033237934   0.875000000000000   1.0000000
B2   B   0.444439311939468   0.055583775729427   0.875000000000000   1.0000000
B2   B   0.944432496031800   0.555557810527276   0.875000000000000   1.0000000
B2   B   0.113279851979926   0.555898740859956   0.375000000000000   1.0000000
B2   B   0.777773621002731   0.055553477168033   0.875000000000000   1.0000000
B2   B   0.278959860768253   0.058308094774463   0.375000000000000   1.0000000
B2   B   0.444349241040660   0.547190931342173   0.375000000000000   1.0000000
B2   B   0.784726485182863   0.559029909258099   0.375000000000000   1.0000000
B2   B   0.609556415333528   0.057661602286910   0.375000000000000   1.0000000
B2   B   0.444453541341913   0.555518266177779   0.875000000000000   1.0000000
B2   B   0.941485344684986   0.053562401700202   0.375000000000000   1.0000000
B2   B   0.277784694376199   0.722216647084464   0.875000000000000   1.0000000
B2   B   0.111169765736025   0.222251549534677   0.875000000000000   1.0000000
B2   B   0.444453541341913   0.222268608497469   0.875000000000000   1.0000000
B2   B   0.611084077900885   0.722157203653126   0.875000000000000   1.0000000
B2   B   0.944432496031800   0.722208018837862   0.875000000000000   1.0000000
B2   B   0.777765429102392   0.222245414234818   0.875000000000000   1.0000000
B2   B   0.114194926826123   0.723764130079727   0.375000000000000   1.0000000
B2   B   0.444760662894865   0.718286964101442   0.375000000000000   1.0000000
B2   B   0.274251584933129   0.222039171562976   0.375000000000000   1.0000000
B2   B   0.779111084101733   0.720732010617313   0.375000000000000   1.0000000
B2   B   0.609567844021450   0.231342576680628   0.375000000000000   1.0000000
B2   B   0.941485344684986   0.221256276318119   0.375000000000000   1.0000000
B2   B   0.111151222295425   0.388906576408223   0.875000000000000   1.0000000
B2   B   0.277784694376199   0.888901380625064   0.875000000000000   1.0000000
B2   B   0.611092426809822   0.888860550600070   0.875000000000000   1.0000000
B2   B   0.444472574701213   0.388902954017270   0.875000000000000   1.0000000
B2   B   0.944449885811586   0.888874716397321   0.875000000000000   1.0000000
B2   B   0.113279851979926   0.890714444453301   0.375000000000000   1.0000000
B2   B   0.777747759269680   0.388911750122523   0.875000000000000   1.0000000
B2   B   0.444936045549534   0.889134689441431   0.375000000000000   1.0000000
B2   B   0.274251584933129   0.385545746703481   0.375000000000000   1.0000000
B2   B   0.278959860768253   0.553985099327126   0.375000000000000   1.0000000
B2   B   0.615750485778341   0.411744912199276   0.375000000000000   1.0000000
B2   B   0.775407305784154   0.885485223365398   0.375000000000000   1.0000000
B2   B   0.944493660995006   0.389304944257445   0.375000000000000   1.0000000
B2   B   0.111122060998894   0.555560259667280   0.875000000000000   1.0000000
B2   B   0.277805205644217   0.055589191064874   0.875000000000000   1.0000000
B2   B   0.777739913773507   0.555536623553421   0.875000000000000   1.0000000
B2   B   0.611092426809822   0.055565209543080   0.875000000000000   1.0000000
B2   B   0.944466171798354   0.055558444193141   0.875000000000000   1.0000000
B2   B   0.055512751122168   0.111122102191999   0.125059443356466   1.0000000
B2   B   0.555488834386939   0.610859823707466   0.125286423164632   1.0000000
B2   B   0.388952147447170   0.111343520339628   0.125242648777860   1.0000000
B2   B   0.888725781523734   0.611029557428538   0.125111795213560   1.0000000
B2   B   0.722138917236691   0.111106343072331   0.125097865266233   1.0000000
B2   B   0.055508676558104   0.777779269871160   0.624944237730334   1.0000000
B2   B   0.388915032931959   0.777719721939491   0.624898794957299   1.0000000
B2   B   0.222244746323365   0.277789039828350   0.624722404058938   1.0000000
B2   B   0.722105526495649   0.777620217558204   0.624836969105776   1.0000000
B2   B   0.555488834386939   0.277962344012808   0.624713576835368   1.0000000
B2   B   0.888803378131173   0.277746857265629   0.624945767236685   1.0000000
B2   B   0.222239390867494   0.777786362100415   0.125048606412722   1.0000000
B2   B   0.055512751122168   0.277723982263505   0.125059443356466   1.0000000
B2   B   0.388975988078523   0.278023074178938   0.125475634278262   1.0000000
B2   B   0.555518959668631   0.777632519229790   0.125203008230453   1.0000000
B2   B   0.888759735415272   0.777699050791910   0.125085863613050   1.0000000
B2   B   0.722105526495649   0.277818642270781   0.125163030894225   1.0000000
B2   B   0.055528044766702   0.944482719657698   0.624920787480511   1.0000000
B2   B   0.388915032931959   0.944528644325805   0.624898794957299   1.0000000
B2   B   0.222273159034988   0.444336445270845   0.624732890804611   1.0000000
B2   B   0.555295311171390   0.444314322252359   0.624055352222735   1.0000000
B2   B   0.722138917236691   0.944365907497696   0.624902134733767   1.0000000
B2   B   0.888759735415272   0.444394017956696   0.624914136386950   1.0000000
B2   B   0.055528044766702   0.444378658442332   0.125079212519490   1.0000000
B2   B   0.222258827173483   0.944566056186285   0.125096474060825   1.0000000
B2   B   0.555523200217079   0.944428266775203   0.125119490735965   1.0000000
B2   B   0.388975988078523   0.444286247232921   0.125475634278262   1.0000000
B2   B   0.888803378131173   0.944389854198881   0.125054232763315   1.0000000
B2   B   0.721976149086374   0.444385098262129   0.125168940008082   1.0000000
B2   B   0.222258827173483   0.611026104320535   0.624903525939175   1.0000000
B2   B   0.055512751122168   0.111122102191999   0.624940556643534   1.0000000
B2   B   0.555488834386939   0.610859823707466   0.624713576835368   1.0000000
B2   B   0.388952147447170   0.111343520339628   0.624757351222140   1.0000000
B2   B   0.888725781523734   0.611029557428538   0.624888204786439   1.0000000
B2   B   0.055508676558104   0.611062740020279   0.125055762269665   1.0000000
B2   B   0.722138917236691   0.111106343072331   0.624902134733767   1.0000000
B2   B   0.222273159034988   0.111270047097479   0.125267109195389   1.0000000
B2   B   0.388952147447170   0.610941960440884   0.125242648777860   1.0000000
B2   B   0.721976149086374   0.610924384157580   0.125168940008082   1.0000000
B2   B   0.555518959668631   0.111219773772177   0.125203008230453   1.0000000
B2   B   0.388952147447170   0.610941960440884   0.624757351222140   1.0000000
B2   B   0.888808864258414   0.111071098795879   0.125028906258533   1.0000000
B2   B   0.222239390867494   0.777786362100415   0.624951393587278   1.0000000
B2   B   0.055512751122168   0.277723982263505   0.624940556643534   1.0000000
B2   B   0.388975988078523   0.278023074178938   0.624524365721738   1.0000000
B2   B   0.555518959668631   0.777632519229790   0.624796991769547   1.0000000
B2   B   0.888759735415272   0.777699050791910   0.624914136386950   1.0000000
B2   B   0.722105526495649   0.277818642270781   0.624836969105776   1.0000000
B2   B   0.055508676558104   0.777779269871160   0.125055762269665   1.0000000
B2   B   0.388915032931959   0.777719721939491   0.125101205042701   1.0000000
B2   B   0.222244746323365   0.277789039828350   0.125277595941063   1.0000000
B2   B   0.722105526495649   0.777620217558204   0.125163030894225   1.0000000
B2   B   0.555488834386939   0.277962344012808   0.125286423164632   1.0000000
B2   B   0.888803378131173   0.277746857265629   0.125054232763315   1.0000000
B2   B   0.055528044766702   0.444378658442332   0.624920787480511   1.0000000
B2   B   0.222258827173483   0.944566056186285   0.624903525939175   1.0000000
B2   B   0.555523200217079   0.944428266775203   0.624880509264036   1.0000000
B2   B   0.388975988078523   0.444286247232921   0.624524365721738   1.0000000
B2   B   0.888803378131173   0.944389854198881   0.624945767236685   1.0000000
B2   B   0.055528044766702   0.944482719657698   0.125079212519490   1.0000000
B2   B   0.721976149086374   0.444385098262129   0.624831059991919   1.0000000
B2   B   0.388915032931959   0.944528644325805   0.125101205042701   1.0000000
B2   B   0.222273159034988   0.444336445270845   0.125267109195389   1.0000000
B2   B   0.222258827173483   0.611026104320535   0.125096474060825   1.0000000
B2   B   0.555295311171390   0.444314322252359   0.125944647777265   1.0000000
B2   B   0.722138917236691   0.944365907497696   0.125097865266233   1.0000000
B2   B   0.888759735415272   0.444394017956696   0.125085863613050   1.0000000
B2   B   0.055508676558104   0.611062740020279   0.624944237730334   1.0000000
B2   B   0.222273159034988   0.111270047097479   0.624732890804611   1.0000000
B2   B   0.721976149086374   0.610924384157580   0.624831059991919   1.0000000
B2   B   0.555518959668631   0.111219773772177   0.624796991769547   1.0000000
B2   B   0.888808864258414   0.111071098795879   0.624971093741468   1.0000000


