data_1
_audit_creation_method   'vasp2cif'
_cell_length_a    14.93631414619966
_cell_length_b    14.936314146199727
_cell_length_c    13.341276283792837
_cell_angle_alpha    90.0
_cell_angle_beta    90.0
_cell_angle_gamma    119.99999999999984

_symmetry_space_group_name_H-M    'P 1'
loop_
_atom_site_label
_atom_site_type_symbol
_atom_site_fract_x
_atom_site_fract_y
_atom_site_fract_z
_atom_site_occupancy
Al2   Al   0.460603715457850   0.396968524395591   0.375000000000000   1.0000000
Al2   Al   0.634761729244672   0.484047531289001   0.375000000000000   1.0000000
N2   N   0.111214832455232   0.055583977404149   0.124658861076195   1.0000000
N2   N   0.611287743983890   0.555670534458045   0.131987573312710   1.0000000
N2   N   0.444513299005940   0.055556619684027   0.124966119586672   1.0000000
N2   N   0.944519357446413   0.555608246314999   0.125846106403495   1.0000000
N2   N   0.777853514880909   0.055593424107120   0.124648223792763   1.0000000
N2   N   0.111188195873783   0.722260764603554   0.624854894151815   1.0000000
N2   N   0.444513299005940   0.722290012655253   0.625033880413332   1.0000000
N2   N   0.277921902775128   0.222265390667847   0.623007782311892   1.0000000
N2   N   0.777858593949565   0.722268327083549   0.623515714903637   1.0000000
N2   N   0.611161922925255   0.222226552164027   0.623666807385256   1.0000000
N2   N   0.944543706326693   0.222283843064869   0.625392689524449   1.0000000
N2   N   0.277848032295467   0.722271123060729   0.124792750593566   1.0000000
N2   N   0.111261762371709   0.222297547852519   0.124973773851585   1.0000000
N2   N   0.444560730543592   0.222233187346412   0.127993097456929   1.0000000
N2   N   0.611161922925255   0.722268704094561   0.126333192614746   1.0000000
N2   N   0.944519357446413   0.722244444464740   0.125846106403495   1.0000000
N2   N   0.777838158601115   0.222260834098676   0.124900163165395   1.0000000
N2   N   0.111187902110126   0.888907809884812   0.625167275646316   1.0000000
N2   N   0.444507321834486   0.888920327583916   0.625328939379953   1.0000000
N2   N   0.277921902775128   0.388989845440617   0.623007782311892   1.0000000
N2   N   0.611287743983890   0.388950542859171   0.618012426687283   1.0000000
N2   N   0.777838158601115   0.888910657835765   0.625099836834606   1.0000000
N2   N   0.944524619252158   0.388949462214062   0.625144259163554   1.0000000
N2   N   0.111214832455232   0.388964188384414   0.124658861076195   1.0000000
N2   N   0.277848032295467   0.888910242568061   0.124792750593566   1.0000000
N2   N   0.611174609245556   0.888934606559500   0.124663383137136   1.0000000
N2   N   0.444549630126048   0.388941481729690   0.135981952868918   1.0000000
N2   N   0.944524619252158   0.888908490371420   0.124855740836450   1.0000000
N2   N   0.777858593949565   0.388923600199360   0.126484285096358   1.0000000
N2   N   0.277867124059662   0.555634048972782   0.624924202292179   1.0000000
N2   N   0.111214832455232   0.055583977404149   0.625341138923807   1.0000000
N2   N   0.611287743983890   0.555670534458045   0.618012426687283   1.0000000
N2   N   0.444513299005940   0.055556619684027   0.625033880413332   1.0000000
N2   N   0.944519357446413   0.555608246314999   0.624153893596509   1.0000000
N2   N   0.111187902110126   0.555613425558637   0.124832724353685   1.0000000
N2   N   0.777853514880909   0.055593424107120   0.625351776207235   1.0000000
N2   N   0.277867124059662   0.055566408420215   0.125075797707821   1.0000000
N2   N   0.444560730543592   0.555660876530513   0.127993097456929   1.0000000
N2   N   0.777838538416855   0.555585935875090   0.129199787796218   1.0000000
N2   N   0.611174609245556   0.055573336019389   0.124663383137136   1.0000000
N2   N   0.444560730543593   0.555660876530513   0.622006902543072   1.0000000
N2   N   0.944543706326693   0.055593196595160   0.124607310475544   1.0000000
N2   N   0.277848032295467   0.722271123060729   0.625207249406440   1.0000000
N2   N   0.111261762371708   0.222297547852519   0.625026226148421   1.0000000
N2   N   0.444560730543592   0.222233187346412   0.622006902543072   1.0000000
N2   N   0.611161922925255   0.722268704094561   0.623666807385256   1.0000000
N2   N   0.944519357446413   0.722244444464740   0.624153893596509   1.0000000
N2   N   0.777838158601115   0.222260834098676   0.625099836834606   1.0000000
N2   N   0.111188195873783   0.722260764603554   0.125145105848182   1.0000000
N2   N   0.444513299005940   0.722290012655253   0.124966119586672   1.0000000
N2   N   0.277921902775128   0.222265390667847   0.126992217688105   1.0000000
N2   N   0.777858593949565   0.722268327083549   0.126484285096358   1.0000000
N2   N   0.611161922925255   0.222226552164027   0.126333192614746   1.0000000
N2   N   0.944543706326693   0.222283843064869   0.124607310475544   1.0000000
N2   N   0.111214832455232   0.388964188384414   0.625341138923807   1.0000000
N2   N   0.277848032295467   0.888910242568061   0.625207249406440   1.0000000
N2   N   0.611174609245556   0.888934606559500   0.625336616862867   1.0000000
N2   N   0.444549630126048   0.388941481729690   0.614018047131076   1.0000000
N2   N   0.944524619252158   0.888908490371420   0.625144259163554   1.0000000
N2   N   0.111187902110126   0.888907809884812   0.124832724353685   1.0000000
N2   N   0.777858593949565   0.388923600199360   0.623515714903637   1.0000000
N2   N   0.444507321834486   0.888920327583916   0.124671060620044   1.0000000
N2   N   0.277921902775128   0.388989845440617   0.126992217688105   1.0000000
N2   N   0.277867124059662   0.555634048972782   0.125075797707821   1.0000000
N2   N   0.611287743983890   0.388950542859171   0.131987573312710   1.0000000
N2   N   0.777838158601115   0.888910657835765   0.124900163165395   1.0000000
N2   N   0.944524619252158   0.388949462214062   0.124855740836450   1.0000000
N2   N   0.111187902110126   0.555613425558637   0.625167275646316   1.0000000
N2   N   0.277867124059662   0.055566408420215   0.624924202292179   1.0000000
N2   N   0.777838538416855   0.555585935875090   0.620800212203786   1.0000000
N2   N   0.611174609245556   0.055573336019389   0.625336616862867   1.0000000
N2   N   0.944543706326693   0.055593196595160   0.625392689524449   1.0000000
N2   N   0.056687705361719   0.112071962520029   0.375000000000000   1.0000000
N2   N   0.548746281388895   0.628440969594558   0.375000000000000   1.0000000
N2   N   0.383066657395429   0.099509339455639   0.375000000000000   1.0000000
N2   N   0.890362007239765   0.611847670286555   0.375000000000000   1.0000000
N2   N   0.722693181949420   0.109522828884895   0.375000000000000   1.0000000
N2   N   0.055552198950839   0.777781039534565   0.875000000000000   1.0000000
N2   N   0.388908541957404   0.777779991743778   0.875000000000000   1.0000000
N2   N   0.222229233366396   0.277781283349867   0.875000000000000   1.0000000
N2   N   0.722240490578115   0.777786518156231   0.875000000000000   1.0000000
N2   N   0.555574993400563   0.277801145460812   0.875000000000000   1.0000000
N2   N   0.888905141946587   0.277781672628674   0.875000000000000   1.0000000
N2   N   0.217943686073946   0.775638509703635   0.375000000000000   1.0000000
N2   N   0.056687705361719   0.277949076175030   0.375000000000000   1.0000000
N2   N   0.386077837655786   0.264034724297215   0.375000000000000   1.0000000
N2   N   0.553270063384012   0.785100363038465   0.375000000000000   1.0000000
N2   N   0.888639643595905   0.779599851380059   0.375000000000000   1.0000000
N2   N   0.722109345305216   0.272952492839913   0.375000000000000   1.0000000
N2   N   0.055561576004877   0.944455901323663   0.875000000000000   1.0000000
N2   N   0.388908541957404   0.944461883546965   0.875000000000000   1.0000000
N2   N   0.222230558765459   0.444435261035986   0.875000000000000   1.0000000
N2   N   0.555556290388884   0.444444811861106   0.875000000000000   1.0000000
N2   N   0.722242893259169   0.944455333476092   0.875000000000000   1.0000000
N2   N   0.888897107602727   0.444442961493901   0.875000000000000   1.0000000
N2   N   0.054172903612884   0.443636237954979   0.375000000000000   1.0000000
N2   N   0.217905645222459   0.940191864870856   0.375000000000000   1.0000000
N2   N   0.553586471417419   0.943459902375371   0.375000000000000   1.0000000
N2   N   0.386077837655786   0.455376446691903   0.375000000000000   1.0000000
N2   N   0.889668079421574   0.946417972816176   0.375000000000000   1.0000000
N2   N   0.722755201130227   0.438558056419209   0.375000000000000   1.0000000
N2   N   0.222230781799512   0.611103228572611   0.875000000000000   1.0000000
N2   N   0.055562404335972   0.111118156733958   0.875000000000000   1.0000000
N2   N   0.555574993400563   0.611107181273079   0.875000000000000   1.0000000
N2   N   0.388910881999447   0.111142468883141   0.875000000000000   1.0000000
N2   N   0.888879883637524   0.611106608485432   0.875000000000000   1.0000000
N2   N   0.052927883248238   0.609657683543324   0.375000000000000   1.0000000
N2   N   0.722242893259169   0.111120893116412   0.875000000000000   1.0000000
N2   N   0.219755703791734   0.107580210858118   0.375000000000000   1.0000000
N2   N   0.383066657395429   0.616890651273128   0.375000000000000   1.0000000
N2   N   0.722755201130227   0.617530478044364   0.375000000000000   1.0000000
N2   N   0.553270063384012   0.101503033678880   0.375000000000000   1.0000000
N2   N   0.388910881999447   0.611101746449653   0.875000000000000   1.0000000
N2   N   0.890215164894390   0.111774249113865   0.375000000000000   1.0000000
N2   N   0.222227784579699   0.777780558956507   0.875000000000000   1.0000000
N2   N   0.055562404335972   0.277777580935346   0.875000000000000   1.0000000
N2   N   0.388906564797219   0.277804920738847   0.875000000000000   1.0000000
N2   N   0.555579358099841   0.777782658596036   0.875000000000000   1.0000000
N2   N   0.888897107602727   0.777787479442167   0.875000000000000   1.0000000
N2   N   0.722240490578115   0.277787305755215   0.875000000000000   1.0000000
N2   N   0.052927883248239   0.776603533038249   0.375000000000000   1.0000000
N2   N   0.384777985564854   0.778460128861135   0.375000000000000   1.0000000
N2   N   0.224768956509025   0.279051144921182   0.375000000000000   1.0000000
N2   N   0.722109345305216   0.782490185798651   0.375000000000000   1.0000000
N2   N   0.548746281388895   0.253638645127681   0.375000000000000   1.0000000
N2   N   0.889668079421574   0.276583439938732   0.375000000000000   1.0000000
N2   N   0.055561576004877   0.444439008014539   0.875000000000000   1.0000000
N2   N   0.222230781799512   0.944460886560233   0.875000000000000   1.0000000
N2   N   0.555575970667303   0.944454652000320   0.875000000000000   1.0000000
N2   N   0.388906564797219   0.444434977391712   0.875000000000000   1.0000000
N2   N   0.888905141946587   0.944456802651250   0.875000000000000   1.0000000
N2   N   0.054172903612884   0.943869998991233   0.375000000000000   1.0000000
N2   N   0.722223726817265   0.444447043348676   0.875000000000000   1.0000000
N2   N   0.384777985564854   0.939651190037067   0.375000000000000   1.0000000
N2   N   0.219755703791734   0.445508826266950   0.375000000000000   1.0000000
N2   N   0.217905645222459   0.611047113684935   0.375000000000000   1.0000000
N2   N   0.722693181949420   0.946503686397849   0.375000000000000   1.0000000
N2   N   0.888639643595905   0.442373125549188   0.375000000000000   1.0000000
N2   N   0.055552198950839   0.611104492749613   0.875000000000000   1.0000000
N2   N   0.222230558765459   0.111128631062809   0.875000000000000   1.0000000
N2   N   0.722223726817265   0.611110016801928   0.875000000000000   1.0000000
N2   N   0.555579358099841   0.111130032837137   0.875000000000000   1.0000000
N2   N   0.888904189370823   0.111118761352084   0.875000000000000   1.0000000
B2   B   0.109863067906659   0.054658455124806   0.375000000000000   1.0000000
B2   B   0.602653727740525   0.581719327984105   0.375000000000000   1.0000000
B2   B   0.441382172770775   0.047989860919500   0.375000000000000   1.0000000
B2   B   0.944392975264563   0.553334721358123   0.375000000000000   1.0000000
B2   B   0.779681444768637   0.056507389050987   0.375000000000000   1.0000000
B2   B   0.111159125199259   0.722246229266302   0.875000000000000   1.0000000
B2   B   0.444439826808337   0.722251552929600   0.875000000000000   1.0000000
B2   B   0.277672670969035   0.222169328553216   0.875000000000000   1.0000000
B2   B   0.777860557676432   0.722360734022456   0.875000000000000   1.0000000
B2   B   0.611136640560795   0.222146297991282   0.875000000000000   1.0000000
B2   B   0.944474910974427   0.222205367491395   0.875000000000000   1.0000000
B2   B   0.273889715274259   0.721523525542479   0.375000000000000   1.0000000
B2   B   0.113235075582461   0.223284204457894   0.375000000000000   1.0000000
B2   B   0.436457890579094   0.206305641180832   0.375000000000000   1.0000000
B2   B   0.611332073211720   0.736500387051075   0.375000000000000   1.0000000
B2   B   0.944392975264563   0.724391587239770   0.375000000000000   1.0000000
B2   B   0.779473128957497   0.219306191633637   0.375000000000000   1.0000000
B2   B   0.111141828120347   0.888937952657328   0.875000000000000   1.0000000
B2   B   0.444458765834093   0.888896049583719   0.875000000000000   1.0000000
B2   B   0.277672670969035   0.388836675749143   0.875000000000000   1.0000000
B2   B   0.611115464181598   0.388815070879285   0.875000000000000   1.0000000
B2   B   0.777842386657643   0.888998506445615   0.875000000000000   1.0000000
B2   B   0.944507777983529   0.388848719697397   0.875000000000000   1.0000000
B2   B   0.109863067906660   0.388537946115181   0.375000000000000   1.0000000
B2   B   0.273889715274259   0.885699523065117   0.375000000000000   1.0000000
B2   B   0.611579512055996   0.893397580337112   0.375000000000000   1.0000000
B2   B   0.944675913414167   0.891148440380825   0.375000000000000   1.0000000
B2   B   0.780087499316557   0.382904466189388   0.375000000000000   1.0000000
B2   B   0.277742603611664   0.555535341398845   0.875000000000000   1.0000000
B2   B   0.111096562277506   0.055578036021946   0.875000000000000   1.0000000
B2   B   0.611115464181598   0.555633726635638   0.875000000000000   1.0000000
B2   B   0.444439826808337   0.055521607212068   0.875000000000000   1.0000000
B2   B   0.944530583442084   0.555556840622262   0.875000000000000   1.0000000
B2   B   0.108279810245648   0.554249765890219   0.375000000000000   1.0000000
B2   B   0.777829829989841   0.055581581661586   0.875000000000000   1.0000000
B2   B   0.272785271611830   0.049646233505093   0.375000000000000   1.0000000
B2   B   0.436457890579093   0.563485582731595   0.375000000000000   1.0000000
B2   B   0.785914903866760   0.559624118600050   0.375000000000000   1.0000000
B2   B   0.611579512055996   0.051515265052215   0.375000000000000   1.0000000
B2   B   0.444378718619084   0.555564428114324   0.875000000000000   1.0000000
B2   B   0.946190741693223   0.057410946397218   0.375000000000000   1.0000000
B2   B   0.277787686358762   0.722224747543365   0.875000000000000   1.0000000
B2   B   0.111068738013987   0.222201035673657   0.875000000000000   1.0000000
B2   B   0.444378718619084   0.222147623838099   0.875000000000000   1.0000000
B2   B   0.611136640560795   0.722323675902844   0.875000000000000   1.0000000
B2   B   0.944530583442084   0.722307076153159   0.875000000000000   1.0000000
B2   B   0.777842386657643   0.222177213545353   0.875000000000000   1.0000000
B2   B   0.108033894533080   0.720683613933205   0.375000000000000   1.0000000
B2   B   0.441382172770775   0.726725645184610   0.375000000000000   1.0000000
B2   B   0.276351476451990   0.218236506845734   0.375000000000000   1.0000000
B2   B   0.780087499316557   0.730516366460494   0.375000000000000   1.0000000
B2   B   0.611332073211720   0.208165019493958   0.375000000000000   1.0000000
B2   B   0.946190741693223   0.222113128629340   0.375000000000000   1.0000000
B2   B   0.111096562277506   0.388851859588890   0.875000000000000   1.0000000
B2   B   0.277787686358762   0.888896272148735   0.875000000000000   1.0000000
B2   B   0.611147636474544   0.888944093507483   0.875000000000000   1.0000000
B2   B   0.444302586538406   0.388817959935866   0.875000000000000   1.0000000
B2   B   0.944507777983529   0.888992391619458   0.875000000000000   1.0000000
B2   B   0.108279810245648   0.887363377688762   0.375000000000000   1.0000000
B2   B   0.777860557676432   0.388833156987302   0.875000000000000   1.0000000
B2   B   0.442142111614177   0.887737722473750   0.375000000000000   1.0000000
B2   B   0.276351476451990   0.391448302939586   0.375000000000000   1.0000000
B2   B   0.272785271611830   0.556472371440067   0.375000000000000   1.0000000
B2   B   0.602653727740525   0.354267733089751   0.375000000000000   1.0000000
B2   B   0.779473128957497   0.893500270657177   0.375000000000000   1.0000000
B2   B   0.944675913414167   0.386860806366678   0.375000000000000   1.0000000
B2   B   0.111141828120347   0.555537208796351   0.875000000000000   1.0000000
B2   B   0.277742603611664   0.055540595546157   0.875000000000000   1.0000000
B2   B   0.777858893847023   0.555596113590189   0.875000000000000   1.0000000
B2   B   0.611147636474544   0.055536876300387   0.875000000000000   1.0000000
B2   B   0.944474910974427   0.055602876816370   0.875000000000000   1.0000000
B2   B   0.055661006886287   0.111167744457740   0.124452617186727   1.0000000
B2   B   0.555367551248667   0.611520046156733   0.127908477084773   1.0000000
B2   B   0.388763141233604   0.110771341846616   0.125307117380046   1.0000000
B2   B   0.889481045886483   0.611407189609915   0.125888558684521   1.0000000
B2   B   0.722279795692437   0.111031691949840   0.124342721353894   1.0000000
B2   B   0.055902404914552   0.777968235678682   0.625274344607211   1.0000000
B2   B   0.388886129466853   0.777876939848475   0.625622573714343   1.0000000
B2   B   0.222173447673568   0.277753390503450   0.623864672907955   1.0000000
B2   B   0.722332220870635   0.778122706248374   0.624824433799735   1.0000000
B2   B   0.555367551248667   0.277180838425274   0.622091522915225   1.0000000
B2   B   0.889054705339934   0.277757060062673   0.625635486214541   1.0000000
B2   B   0.222383745643349   0.777858539488337   0.124522155904494   1.0000000
B2   B   0.055661006886287   0.277826595761881   0.124452617186727   1.0000000
B2   B   0.388506384082100   0.277168462498748   0.129930671085851   1.0000000
B2   B   0.555496554816964   0.778010749903005   0.124712821023882   1.0000000
B2   B   0.889259085836936   0.778106686652731   0.124964679871285   1.0000000
B2   B   0.722332220870635   0.277542847955596   0.125175566200265   1.0000000
B2   B   0.055745304778593   0.944563314151804   0.625641292957751   1.0000000
B2   B   0.388886129466853   0.944342522951709   0.625622573714343   1.0000000
B2   B   0.222204369046225   0.444550156409397   0.624903825163905   1.0000000
B2   B   0.555532570948173   0.444432952140751   0.618489075354761   1.0000000
B2   B   0.722279795692437   0.944581437075935   0.625657278646105   1.0000000
B2   B   0.889259085836936   0.444485732517535   0.625035320128716   1.0000000
B2   B   0.055745304778593   0.444515323960120   0.124358707042255   1.0000000
B2   B   0.222312042650306   0.944415951417563   0.124467189724272   1.0000000
B2   B   0.555550082351604   0.944441707842464   0.124255954917059   1.0000000
B2   B   0.388506384082100   0.444671254916684   0.129930671085851   1.0000000
B2   B   0.889054705339934   0.944630978610598   0.124364513785457   1.0000000
B2   B   0.722692878910014   0.444401031479040   0.127547482933480   1.0000000
B2   B   0.222312042650306   0.611229424566088   0.625532810275732   1.0000000
B2   B   0.055661006886287   0.111167744457740   0.625547382813270   1.0000000
B2   B   0.555367551248667   0.611520046156733   0.622091522915225   1.0000000
B2   B   0.388763141233604   0.110771341846616   0.624692882619946   1.0000000
B2   B   0.889481045886483   0.611407189609915   0.624111441315480   1.0000000
B2   B   0.055902404914552   0.611267502569211   0.124725655392784   1.0000000
B2   B   0.722279795692437   0.111031691949840   0.625657278646105   1.0000000
B2   B   0.222204369046225   0.110987545970161   0.125096174836101   1.0000000
B2   B   0.388763141233604   0.611325132720339   0.125307117380046   1.0000000
B2   B   0.722692878910014   0.611625180764303   0.127547482933480   1.0000000
B2   B   0.555496554816964   0.110819138247289   0.124712821023882   1.0000000
B2   B   0.388763141233604   0.611325132720339   0.624692882619946   1.0000000
B2   B   0.889005526621847   0.111169429977594   0.124334164386199   1.0000000
B2   B   0.222383745643349   0.777858539488337   0.625477844095512   1.0000000
B2   B   0.055661006886287   0.277826595761881   0.625547382813270   1.0000000
B2   B   0.388506384082100   0.277168462498748   0.620069328914150   1.0000000
B2   B   0.555496554816964   0.778010749903005   0.625287178976118   1.0000000
B2   B   0.889259085836936   0.778106686652731   0.625035320128716   1.0000000
B2   B   0.722332220870635   0.277542847955596   0.624824433799735   1.0000000
B2   B   0.055902404914552   0.777968235678682   0.124725655392784   1.0000000
B2   B   0.388886129466853   0.777876939848475   0.124377426285657   1.0000000
B2   B   0.222173447673568   0.277753390503450   0.126135327092046   1.0000000
B2   B   0.722332220870635   0.778122706248374   0.125175566200265   1.0000000
B2   B   0.555367551248667   0.277180838425274   0.127908477084773   1.0000000
B2   B   0.889054705339934   0.277757060062673   0.124364513785457   1.0000000
B2   B   0.055745304778592   0.444515323960120   0.625641292957751   1.0000000
B2   B   0.222312042650306   0.944415951417563   0.625532810275732   1.0000000
B2   B   0.555550082351604   0.944441707842464   0.625744045082936   1.0000000
B2   B   0.388506384082100   0.444671254916684   0.620069328914150   1.0000000
B2   B   0.889054705339934   0.944630978610598   0.625635486214541   1.0000000
B2   B   0.055745304778593   0.944563314151804   0.124358707042255   1.0000000
B2   B   0.722692878910014   0.444401031479040   0.622452517066520   1.0000000
B2   B   0.388886129466853   0.944342522951709   0.124377426285657   1.0000000
B2   B   0.222204369046225   0.444550156409397   0.125096174836101   1.0000000
B2   B   0.222312042650306   0.611229424566088   0.124467189724272   1.0000000
B2   B   0.555532570948173   0.444432952140751   0.131510924645229   1.0000000
B2   B   0.722279795692437   0.944581437075935   0.124342721353894   1.0000000
B2   B   0.889259085836936   0.444485732517535   0.124964679871285   1.0000000
B2   B   0.055902404914552   0.611267502569211   0.625274344607211   1.0000000
B2   B   0.222204369046225   0.110987545970161   0.624903825163905   1.0000000
B2   B   0.722692878910014   0.611625180764303   0.622452517066520   1.0000000
B2   B   0.555496554816964   0.110819138247289   0.625287178976118   1.0000000
B2   B   0.889005526621847   0.111169429977594   0.625665835613805   1.0000000


