data_1
_audit_creation_method   'vasp2cif'
_cell_length_a    17.52789999999977
_cell_length_b    17.52789999999977
_cell_length_c    15.0
_cell_angle_alpha    90.0
_cell_angle_beta    90.0
_cell_angle_gamma    119.99999999999916

_symmetry_space_group_name_H-M    'P 1'
loop_
_atom_site_label
_atom_site_type_symbol
_atom_site_fract_x
_atom_site_fract_y
_atom_site_fract_z
_atom_site_occupancy
B2   B   0.904369604888853   0.952153290856545   0.108488021191291   1.0000000
B2   B   0.904750701316785   0.095251045375215   0.107421038204183   1.0000000
B2   B   0.904874138617023   0.238150711155993   0.107231065262705   1.0000000
B2   B   0.904749497483315   0.380930900449719   0.107574975069978   1.0000000
B2   B   0.904377094229957   0.523646997659774   0.108847585220231   1.0000000
B2   B   0.904151696754662   0.666362771962075   0.110814889063019   1.0000000
B2   B   0.904140735812547   0.809239463553401   0.110600607965161   1.0000000
B2   B   0.047503836453750   0.952497886911246   0.109414778938611   1.0000000
B2   B   0.047848424485457   0.095632115583153   0.108488020718290   1.0000000
B2   B   0.047967503971535   0.238390231666543   0.107765001941335   1.0000000
B2   B   0.047965548919838   0.380993187468158   0.107855708531150   1.0000000
B2   B   0.047842296178542   0.523647423429318   0.108865501715095   1.0000000
B2   B   0.047508959124265   0.666463612178447   0.109933178339120   1.0000000
B2   B   0.047417927535951   0.809442098373089   0.110322675958236   1.0000000
B2   B   0.190559651319916   0.952583835557052   0.110322674432239   1.0000000
B2   B   0.190762237482596   0.095860976895458   0.110600603841164   1.0000000
B2   B   0.191460085122715   0.239313301474703   0.110334686387329   1.0000000
B2   B   0.191284619835249   0.381357831201303   0.109624786295325   1.0000000
B2   B   0.191447839412812   0.523579995046269   0.110482350790241   1.0000000
B2   B   0.190754916252449   0.666352482658338   0.111025158453643   1.0000000
B2   B   0.190573053337111   0.809428641203887   0.110580641662784   1.0000000
B2   B   0.333538123526552   0.952492764709738   0.109933180753118   1.0000000
B2   B   0.333638942014924   0.095850043165347   0.110814884686019   1.0000000
B2   B   0.333961409479681   0.239355916641936   0.114663873718054   1.0000000
B2   B   0.335475104976722   0.383506301856864   0.115902421213000   1.0000000
B2   B   0.335474733075216   0.523397999160412   0.115946761903769   1.0000000
B2   B   0.333955955208963   0.666045747565037   0.114841419455884   1.0000000
B2   B   0.333649170661660   0.809246712590545   0.111025161986646   1.0000000
B2   B   0.476354263989682   0.952159284751462   0.108865507026097   1.0000000
B2   B   0.476354743846223   0.095624728446041   0.108847593913231   1.0000000
B2   B   0.476429365028632   0.239303435474846   0.110357731600873   1.0000000
B2   B   0.476608884465149   0.383491019224226   0.115771489804252   1.0000000
B2   B   0.476603785272584   0.664527124264787   0.115946762417776   1.0000000
B2   B   0.476421720743730   0.808553847655188   0.110482356527241   1.0000000
B2   B   0.619008551503845   0.952036135497162   0.107855710638151   1.0000000
B2   B   0.619070769898280   0.095252189798687   0.107574976155978   1.0000000
B2   B   0.619017045293853   0.238388078445276   0.107832901122014   1.0000000
B2   B   0.618652420367641   0.381349313841360   0.109473527804728   1.0000000
B2   B   0.616510549745773   0.523392782737853   0.115771484546250   1.0000000
B2   B   0.616495347598137   0.664526618739274   0.115902420925997   1.0000000
B2   B   0.618643911958695   0.808717149567750   0.109624781947322   1.0000000
B2   B   0.761611508861456   0.952034215555465   0.107765004167330   1.0000000
B2   B   0.761850984605007   0.095127537916974   0.107231067665704   1.0000000
B2   B   0.761878385943745   0.238123319236252   0.107253773014072   1.0000000
B2   B   0.761613743938724   0.380984710137148   0.107832892715015   1.0000000
B2   B   0.760698316701151   0.523572317778371   0.110357723636876   1.0000000
B2   B   0.760645742129062   0.666040271065316   0.114663882346054   1.0000000
B2   B   0.760688369949299   0.808541631559285   0.110334688861325   1.0000000
C2   C   0.476228941352095   0.523772714194908   0.152817106563593   1.0000000
N2   N   0.952231004588046   0.904733921950817   0.109238358936934   1.0000000
N2   N   0.952360058431335   0.047641658878664   0.107865696706410   1.0000000
N2   N   0.952441517435605   0.190514734081335   0.107264810929734   1.0000000
N2   N   0.952437566312157   0.333352616712076   0.107344738639249   1.0000000
N2   N   0.952360403788838   0.476149145571646   0.108198914298065   1.0000000
N2   N   0.952233313774420   0.618940567832963   0.109699196582101   1.0000000
N2   N   0.952216729753385   0.761838019428922   0.110746412554337   1.0000000
N2   N   0.095198655378970   0.904803097089032   0.110003881160477   1.0000000
N2   N   0.095267783487185   0.047770714226953   0.109238365433930   1.0000000
N2   N   0.095599200034545   0.190869332253744   0.108483237265872   1.0000000
N2   N   0.095411898535742   0.333417350200844   0.107939742990159   1.0000000
N2   N   0.095588931849235   0.476155475016305   0.108685886755991   1.0000000
N2   N   0.095261230475016   0.618937585178234   0.109772717298823   1.0000000
N2   N   0.095203675497409   0.761855037763522   0.110346838746457   1.0000000
N2   N   0.238146674397479   0.904798035260591   0.110346839638459   1.0000000
N2   N   0.238163709948083   0.047785039210612   0.110746405131339   1.0000000
N2   N   0.238240875259680   0.190782308312901   0.111958785791032   1.0000000
N2   N   0.239030251924957   0.334298289144551   0.110559083629129   1.0000000
N2   N   0.239025979409150   0.476166850146565   0.110598013018218   1.0000000
N2   N   0.238229720008230   0.618898943387703   0.112217752214045   1.0000000
N2   N   0.238170414172622   0.761831220022373   0.111112253001212   1.0000000
N2   N   0.381064085924765   0.904740395307983   0.109772721448826   1.0000000
N2   N   0.381061159354035   0.047768437145579   0.109699204330101   1.0000000
N2   N   0.381106991482518   0.190777943456145   0.112038752542524   1.0000000
N2   N   0.381038783285314   0.333496998255164   0.118815482570584   1.0000000
N2   N   0.383762652800278   0.477591640271792   0.121404059707756   1.0000000
N2   N   0.381031122939017   0.618970675019984   0.118928360721045   1.0000000
N2   N   0.381102795101294   0.761771986871770   0.112217756835045   1.0000000
N2   N   0.523846257211702   0.904412663666762   0.108685900533990   1.0000000
N2   N   0.523852512777353   0.047641257971165   0.108198914743063   1.0000000
N2   N   0.523853341302860   0.190863100795249   0.108650422368529   1.0000000
N2   N   0.523844177441000   0.334287070657843   0.110403021998480   1.0000000
N2   N   0.522420903965813   0.477580692659192   0.121243515272858   1.0000000
N2   N   0.522410019011209   0.616239029338723   0.121404061285757   1.0000000
N2   N   0.523834932466440   0.760975876918840   0.110598010202217   1.0000000
N2   N   0.666584440411152   0.904589848937258   0.107939740777159   1.0000000
N2   N   0.666649053018923   0.047564087936847   0.107344737171254   1.0000000
N2   N   0.666665404896222   0.190508528506214   0.107347966355601   1.0000000
N2   N   0.666590038118472   0.333411772430529   0.107884703914096   1.0000000
N2   N   0.665714593474150   0.476157538568997   0.110403001599487   1.0000000
N2   N   0.666504632388836   0.618962911259685   0.118815485205582   1.0000000
N2   N   0.665703377309446   0.760971505543041   0.110559076498129   1.0000000
N2   N   0.809132380262259   0.904402514999458   0.108483237641877   1.0000000
N2   N   0.809486991195668   0.047560191637392   0.107264820616734   1.0000000
N2   N   0.809537332965905   0.190464321726095   0.107208150584117   1.0000000
N2   N   0.809493209601783   0.333336280264781   0.107347960415606   1.0000000
N2   N   0.809138790759753   0.476148413147144   0.108650401857526   1.0000000
N2   N   0.809223777910854   0.618894712564483   0.112038767895526   1.0000000
N2   N   0.809219353781099   0.761760816524320   0.111958797087027   1.0000000


