data_1
_audit_creation_method   'vasp2cif'
_cell_length_a    17.52789999999977
_cell_length_b    17.52789999999977
_cell_length_c    15.0
_cell_angle_alpha    90.0
_cell_angle_beta    90.0
_cell_angle_gamma    119.99999999999916

_symmetry_space_group_name_H-M    'P 1'
loop_
_atom_site_label
_atom_site_type_symbol
_atom_site_fract_x
_atom_site_fract_y
_atom_site_fract_z
_atom_site_occupancy
Ge2   Ge   0.496198513207949   0.503802888709047   0.110820937871617   1.0000000
B2   B   0.906003621296716   0.953253105885069   0.111012781430125   1.0000000
B2   B   0.904538628861676   0.095463392334321   0.111033851375413   1.0000000
B2   B   0.904090056202767   0.238244272753007   0.111042410177823   1.0000000
B2   B   0.904220486847732   0.381092165734872   0.110995023891924   1.0000000
B2   B   0.905298612709190   0.523992201257176   0.111032769215211   1.0000000
B2   B   0.906920121111253   0.667292732368336   0.111099002786612   1.0000000
B2   B   0.907646516033137   0.811130403809323   0.111056162571854   1.0000000
B2   B   0.048278185489591   0.951723835706413   0.111007446556033   1.0000000
B2   B   0.046748915310934   0.093998399899281   0.111012781430125   1.0000000
B2   B   0.046366447227335   0.237220386113490   0.110987711276571   1.0000000
B2   B   0.046859443135489   0.380426953732596   0.111009618658696   1.0000000
B2   B   0.048130982746165   0.523318230565636   0.111011506499010   1.0000000
B2   B   0.049014364081647   0.666187530016308   0.111066762689657   1.0000000
B2   B   0.049096106512796   0.809119460801493   0.111054166298652   1.0000000
B2   B   0.190882560394510   0.950905914683208   0.111054166298652   1.0000000
B2   B   0.188871617386681   0.092355505162859   0.111056162571854   1.0000000
B2   B   0.187308787710862   0.234611602170201   0.111016675903872   1.0000000
B2   B   0.188633255661329   0.379128697581600   0.110996059874347   1.0000000
B2   B   0.191086773741592   0.522516510853642   0.111039455837900   1.0000000
B2   B   0.191885091687112   0.665515013839637   0.111029907535899   1.0000000
B2   B   0.191630216094171   0.808371805101832   0.111008885804124   1.0000000
B2   B   0.333814491180690   0.950987657114357   0.111066762689657   1.0000000
B2   B   0.332709288828663   0.093081900084743   0.111099002786612   1.0000000
B2   B   0.328880563513390   0.232321556270844   0.111027168326256   1.0000000
B2   B   0.326995823205864   0.375046368536871   0.111027910622516   1.0000000
B2   B   0.334280987967408   0.520868134386153   0.111088669430857   1.0000000
B2   B   0.335225381179637   0.664776640017363   0.111075467367001   1.0000000
B2   B   0.334487007357361   0.808116929508891   0.111029907535899   1.0000000
B2   B   0.476683790631361   0.951871038449839   0.111011506499010   1.0000000
B2   B   0.476009819939821   0.094703408486806   0.111032769215211   1.0000000
B2   B   0.474808888754159   0.237018003684979   0.111012414025429   1.0000000
B2   B   0.466669135885740   0.372056545930445   0.111043412930820   1.0000000
B2   B   0.479133886810846   0.665721033229589   0.111088669430857   1.0000000
B2   B   0.477485510343357   0.808915247454412   0.111039455837900   1.0000000
B2   B   0.619575067463408   0.953142578060515   0.111009618658696   1.0000000
B2   B   0.618909855461132   0.095781534348265   0.110995023891924   1.0000000
B2   B   0.618385247323157   0.238845470817654   0.111013361791942   1.0000000
B2   B   0.617629883345972   0.382372137850031   0.110994475384554   1.0000000
B2   B   0.627945475265558   0.533332885311258   0.111043412930820   1.0000000
B2   B   0.624955652659132   0.673006197991134   0.111027910622516   1.0000000
B2   B   0.620873323614404   0.811368765534675   0.110996059874347   1.0000000
B2   B   0.762781635082514   0.953635573968668   0.110987711276571   1.0000000
B2   B   0.761757748442996   0.095911964993229   0.111042410177823   1.0000000
B2   B   0.761332566153398   0.238669455042606   0.111036081657548   1.0000000
B2   B   0.761156550378350   0.381616773872846   0.111013361791942   1.0000000
B2   B   0.762984017511024   0.525193132442839   0.111012414025429   1.0000000
B2   B   0.767680464925161   0.671121457683608   0.111027168326256   1.0000000
B2   B   0.765390419025803   0.812693233485140   0.111016675903872   1.0000000
N2   N   0.953814902551195   0.905579267210170   0.110996311579817   1.0000000
N2   N   0.952232249678872   0.047769152239134   0.111004460625719   1.0000000
N2   N   0.951476361386080   0.190385991416088   0.111010780977113   1.0000000
N2   N   0.951599824499549   0.333327458926955   0.110993943388331   1.0000000
N2   N   0.952582183853093   0.476191043006952   0.110981341422471   1.0000000
N2   N   0.953722244488540   0.619082295987242   0.111077115359240   1.0000000
N2   N   0.954212765728136   0.762326457921752   0.111068220136201   1.0000000
N2   N   0.095986234112621   0.904015167805377   0.111006892033046   1.0000000
N2   N   0.094422134707829   0.046186499366811   0.110996311579817   1.0000000
N2   N   0.093025850910002   0.188536960359873   0.110983825204895   1.0000000
N2   N   0.093682276794349   0.332256598672916   0.110969252616516   1.0000000
N2   N   0.095475818789733   0.475539067620969   0.111002131109779   1.0000000
N2   N   0.096415723986436   0.618421440268324   0.111022173350290   1.0000000
N2   N   0.096503692224675   0.761251969693133   0.111017902712766   1.0000000
N2   N   0.238749432224872   0.903497709693323   0.111017902712766   1.0000000
N2   N   0.237674943996253   0.045788636189870   0.111068220136201   1.0000000
N2   N   0.234758331567001   0.186582716614763   0.111018028772679   1.0000000
N2   N   0.233304968604681   0.328907591733863   0.110989148922688   1.0000000
N2   N   0.238079016095728   0.474380683615583   0.111026605591567   1.0000000
N2   N   0.239533112704368   0.617799166933976   0.111033362444613   1.0000000
N2   N   0.239268009469320   0.760733392448686   0.111001954844294   1.0000000
N2   N   0.381579961649675   0.903585677931562   0.111022173350290   1.0000000
N2   N   0.380919105930757   0.046279157429465   0.111077115359240   1.0000000
N2   N   0.379557314664658   0.188075258789887   0.111030859619290   1.0000000
N2   N   0.373892059371628   0.326131372757663   0.111012106616124   1.0000000
N2   N   0.375919133542843   0.468120123007512   0.111019061958917   1.0000000
N2   N   0.383097432717098   0.616903969200901   0.111094213601555   1.0000000
N2   N   0.382202234984022   0.760468289213639   0.111033362444613   1.0000000
N2   N   0.524462334296027   0.904525583128266   0.111002131109779   1.0000000
N2   N   0.523810358910045   0.047419218064913   0.110981341422471   1.0000000
N2   N   0.523145357509791   0.190349859985013   0.111005551589158   1.0000000
N2   N   0.521702124726144   0.333347431323925   0.110994715223368   1.0000000
N2   N   0.531881278909484   0.624082268375154   0.111019061958917   1.0000000
N2   N   0.525620718301414   0.761922385822277   0.111026605591567   1.0000000
N2   N   0.667744803244081   0.906319125123649   0.110969252616516   1.0000000
N2   N   0.666673942990042   0.048401577418457   0.110993943388331   1.0000000
N2   N   0.666090286927509   0.191253367758161   0.110997530186153   1.0000000
N2   N   0.665432371777071   0.334569030139926   0.110983316071917   1.0000000
N2   N   0.666653970593073   0.478299277190853   0.110994715223368   1.0000000
N2   N   0.673870029159332   0.626109342546371   0.111012106616124   1.0000000
N2   N   0.671093810183133   0.766696433313325   0.110989148922688   1.0000000
N2   N   0.811464441558125   0.906975551007996   0.110983825204895   1.0000000
N2   N   0.809615410501911   0.048525040531926   0.111010780977113   1.0000000
N2   N   0.808947902864723   0.191053499053276   0.111042022013266   1.0000000
N2   N   0.808748034159839   0.333911114989489   0.110997530186153   1.0000000
N2   N   0.809651541932985   0.476856044407205   0.111005551589158   1.0000000
N2   N   0.811926143128112   0.620444087253342   0.111030859619290   1.0000000
N2   N   0.813418685303236   0.765243070351005   0.111018028772679   1.0000000


