data_1
_audit_creation_method   'vasp2cif'
_cell_length_a    14.93631414619966
_cell_length_b    14.936314146199727
_cell_length_c    13.341276283792837
_cell_angle_alpha    90.0
_cell_angle_beta    90.0
_cell_angle_gamma    119.99999999999984

_symmetry_space_group_name_H-M    'P 1'
loop_
_atom_site_label
_atom_site_type_symbol
_atom_site_fract_x
_atom_site_fract_y
_atom_site_fract_z
_atom_site_occupancy
C2   C   0.389632082595933   0.441264689298927   0.375000000000000   1.0000000
C2   C   0.445020114027892   0.386896669110854   0.375000000000000   1.0000000
C2   C   0.549519558945615   0.440960105579962   0.375000000000000   1.0000000
N2   N   0.110994572505238   0.055608085107027   0.121639070770174   1.0000000
N2   N   0.611055992547914   0.555669723310353   0.121984193784729   1.0000000
N2   N   0.444361369507420   0.055612493278921   0.120417904691610   1.0000000
N2   N   0.944324923496247   0.555577611050086   0.124191879582902   1.0000000
N2   N   0.777684762530760   0.055605439821831   0.121890348395574   1.0000000
N2   N   0.111002197697491   0.722262757139399   0.626138992184277   1.0000000
N2   N   0.444369063102472   0.722287211436235   0.627484106988324   1.0000000
N2   N   0.277633239296290   0.222255224587050   0.629022791703286   1.0000000
N2   N   0.777693676903031   0.722316621943097   0.627632450048474   1.0000000
N2   N   0.611034006472200   0.222256843454545   0.629056453382030   1.0000000
N2   N   0.944309750892662   0.222236443270779   0.626977655440817   1.0000000
N2   N   0.277688818753230   0.722263936361919   0.123593511709454   1.0000000
N2   N   0.110946826424628   0.222230792994170   0.122290891004201   1.0000000
N2   N   0.444330646880910   0.222270038968564   0.120630853553143   1.0000000
N2   N   0.611034270013691   0.722300170743524   0.121921658318538   1.0000000
N2   N   0.944330278531571   0.722273018917004   0.123388117832658   1.0000000
N2   N   0.777684946294290   0.222249349050982   0.122049714733825   1.0000000
N2   N   0.111009217928737   0.888944529659987   0.627744722043499   1.0000000
N2   N   0.444366390796669   0.888956660886514   0.628328054812807   1.0000000
N2   N   0.277555877484597   0.388857589494977   0.627971477708691   1.0000000
N2   N   0.611021717478180   0.388926908443270   0.628914448391242   1.0000000
N2   N   0.777698442523747   0.888976664437737   0.627938691076404   1.0000000
N2   N   0.944316970520485   0.388901317787338   0.626100839086061   1.0000000
N2   N   0.110963070657644   0.388892043796878   0.123933617752659   1.0000000
N2   N   0.277687350895124   0.888942520615382   0.121956274897246   1.0000000
N2   N   0.611037141369254   0.888967394896143   0.121708374698823   1.0000000
N2   N   0.444288774084838   0.388885312955225   0.121614108379505   1.0000000
N2   N   0.944352222425887   0.888968739298439   0.122349462400138   1.0000000
N2   N   0.777668905715464   0.388899388526990   0.122763431636196   1.0000000
N2   N   0.277678705752504   0.555576841024157   0.626306415917511   1.0000000
N2   N   0.110994572505238   0.055608085107027   0.628360929229732   1.0000000
N2   N   0.611055992547914   0.555669723310353   0.628015806214718   1.0000000
N2   N   0.444361369507420   0.055612493278921   0.629582095308178   1.0000000
N2   N   0.944324923496247   0.555577611050086   0.625808120417171   1.0000000
N2   N   0.110991497057261   0.555569253275174   0.124651649981733   1.0000000
N2   N   0.777684762530760   0.055605439821831   0.628109651604560   1.0000000
N2   N   0.277676385146303   0.055616466170672   0.120795067331280   1.0000000
N2   N   0.444380948736472   0.555656288043365   0.121928733992589   1.0000000
N2   N   0.777660080663643   0.555606862583103   0.123244661968891   1.0000000
N2   N   0.611036447993775   0.055612646429874   0.120938752078870   1.0000000
N2   N   0.444380948736472   0.555656288043365   0.628071266007262   1.0000000
N2   N   0.944327954328253   0.055602421803786   0.122344779261827   1.0000000
N2   N   0.277688818753230   0.722263936361919   0.626406488290564   1.0000000
N2   N   0.110946826424628   0.222230792993986   0.627709108995808   1.0000000
N2   N   0.444330646880909   0.222270038968564   0.629369146446802   1.0000000
N2   N   0.611034270013691   0.722300170743524   0.628078341682147   1.0000000
N2   N   0.944330278531571   0.722273018917004   0.626611882167090   1.0000000
N2   N   0.777684946294290   0.222249349050982   0.627950285266425   1.0000000
N2   N   0.111002197697491   0.722262757139399   0.123861007815010   1.0000000
N2   N   0.444369063102472   0.722287211436235   0.122515893011822   1.0000000
N2   N   0.277633239296290   0.222255224587050   0.120977208296146   1.0000000
N2   N   0.777693676903054   0.722316621943097   0.122367549951721   1.0000000
N2   N   0.611034006472200   0.222256843454551   0.120943546618244   1.0000000
N2   N   0.944309750892662   0.222236443270779   0.123022344559370   1.0000000
N2   N   0.110963070657644   0.388892043796878   0.626066382247062   1.0000000
N2   N   0.277687350895124   0.888942520615382   0.628043725102632   1.0000000
N2   N   0.611037141369254   0.888967394896143   0.628291625301218   1.0000000
N2   N   0.444288774084838   0.388885312955225   0.628385891620443   1.0000000
N2   N   0.944352222425887   0.888968739298439   0.627650537599645   1.0000000
N2   N   0.111009217928737   0.888944529659987   0.122255277956716   1.0000000
N2   N   0.777668905715464   0.388899388526990   0.627236568364342   1.0000000
N2   N   0.444366390796669   0.888956660886514   0.121671945187274   1.0000000
N2   N   0.277555877484597   0.388857589494977   0.122028522290907   1.0000000
N2   N   0.277678705752504   0.555576841024157   0.123693584082459   1.0000000
N2   N   0.611021717478180   0.388926908443270   0.121085551608587   1.0000000
N2   N   0.777698442523747   0.888976664437737   0.122061308923588   1.0000000
N2   N   0.944316970520463   0.388901317787338   0.123899160914266   1.0000000
N2   N   0.110991497057261   0.555569253275161   0.625348350018104   1.0000000
N2   N   0.277676385146303   0.055616466170672   0.629204932668494   1.0000000
N2   N   0.777660080663643   0.555606862583103   0.626755338031190   1.0000000
N2   N   0.611036447993775   0.055612646429874   0.629061247921095   1.0000000
N2   N   0.944327954328253   0.055602421803786   0.627655220738251   1.0000000
N2   N   0.054791541014376   0.109519154753398   0.375000000000000   1.0000000
N2   N   0.557539785103775   0.613764753722793   0.375000000000000   1.0000000
N2   N   0.389225445698292   0.111161979218486   0.375000000000000   1.0000000
N2   N   0.889151529794013   0.610638940511848   0.375000000000000   1.0000000
N2   N   0.722327646854311   0.110219316270406   0.375000000000000   1.0000000
N2   N   0.055656097436787   0.778172203007876   0.875000000000000   1.0000000
N2   N   0.388962443891989   0.778173784375696   0.875000000000000   1.0000000
N2   N   0.222327028166267   0.278181525346081   0.875000000000000   1.0000000
N2   N   0.722312760030870   0.778170495567410   0.875000000000000   1.0000000
N2   N   0.555663327322204   0.278180745989299   0.875000000000000   1.0000000
N2   N   0.889008194326400   0.278193296599194   0.875000000000000   1.0000000
N2   N   0.222295829542961   0.777475692910903   0.375000000000000   1.0000000
N2   N   0.054970204020484   0.276876783366959   0.375000000000000   1.0000000
N2   N   0.388798423877795   0.277796288756221   0.375000000000000   1.0000000
N2   N   0.555728639864506   0.778263526357562   0.375000000000000   1.0000000
N2   N   0.889702462093082   0.777769896726408   0.375000000000000   1.0000000
N2   N   0.723005869631630   0.276402647666627   0.375000000000000   1.0000000
N2   N   0.055658528951547   0.944836425851755   0.875000000000000   1.0000000
N2   N   0.388977043548411   0.944833563179272   0.875000000000000   1.0000000
N2   N   0.222324530161170   0.444866581772892   0.875000000000000   1.0000000
N2   N   0.555656205737057   0.444853948595290   0.875000000000000   1.0000000
N2   N   0.722316647793720   0.944835164820649   0.875000000000000   1.0000000
N2   N   0.889010655888515   0.444859363182859   0.875000000000000   1.0000000
N2   N   0.055465334879342   0.444102865540309   0.375000000000000   1.0000000
N2   N   0.222509419763954   0.944117365107958   0.375000000000000   1.0000000
N2   N   0.555481836660469   0.944023368451410   0.375000000000000   1.0000000
N2   N   0.889136797127156   0.943896921627830   0.375000000000000   1.0000000
N2   N   0.726775112024746   0.444939758660739   0.375000000000000   1.0000000
N2   N   0.222305831494687   0.611519160480753   0.875000000000000   1.0000000
N2   N   0.055662769981810   0.111508359403610   0.875000000000000   1.0000000
N2   N   0.555644918110234   0.611515944651794   0.875000000000000   1.0000000
N2   N   0.388987634766811   0.111508291449482   0.875000000000000   1.0000000
N2   N   0.889003267409253   0.611514220650801   0.875000000000000   1.0000000
N2   N   0.055791378138751   0.610831930274109   0.375000000000000   1.0000000
N2   N   0.722326675962231   0.111511349930684   0.875000000000000   1.0000000
N2   N   0.222522996336452   0.110648344894321   0.375000000000000   1.0000000
N2   N   0.388986453470836   0.611744245094927   0.375000000000000   1.0000000
N2   N   0.723313792498916   0.612015982305324   0.375000000000000   1.0000000
N2   N   0.555685085926905   0.110058177572022   0.375000000000000   1.0000000
N2   N   0.388968406353296   0.611523699751580   0.875000000000000   1.0000000
N2   N   0.888830754421280   0.110332449276395   0.375000000000000   1.0000000
N2   N   0.222307950784937   0.778170235683786   0.875000000000000   1.0000000
N2   N   0.055669432849572   0.278192395154148   0.875000000000000   1.0000000
N2   N   0.388995048339950   0.278185987398323   0.875000000000000   1.0000000
N2   N   0.555635104531105   0.778173471276464   0.875000000000000   1.0000000
N2   N   0.888996528254973   0.778175998714638   0.875000000000000   1.0000000
N2   N   0.722336267628038   0.278185594234129   0.875000000000000   1.0000000
N2   N   0.055872483705672   0.777379488186965   0.375000000000000   1.0000000
N2   N   0.388767701081940   0.777816144748489   0.375000000000000   1.0000000
N2   N   0.219393753610634   0.274756433331565   0.375000000000000   1.0000000
N2   N   0.723263671020867   0.778407468373248   0.375000000000000   1.0000000
N2   N   0.555898384631388   0.274943260788523   0.375000000000000   1.0000000
N2   N   0.889142695788276   0.277099458080301   0.375000000000000   1.0000000
N2   N   0.055666805356150   0.444864704032613   0.875000000000000   1.0000000
N2   N   0.222316410050296   0.944833031270621   0.875000000000000   1.0000000
N2   N   0.555638635982358   0.944834887356303   0.875000000000000   1.0000000
N2   N   0.388991014595286   0.444858479134026   0.875000000000000   1.0000000
N2   N   0.888994888508436   0.944841768408739   0.875000000000000   1.0000000
N2   N   0.055987931240375   0.943999025248027   0.375000000000000   1.0000000
N2   N   0.722342907590380   0.444855794395744   0.875000000000000   1.0000000
N2   N   0.388874065893514   0.944177832180261   0.375000000000000   1.0000000
N2   N   0.220943042895904   0.443757309189354   0.375000000000000   1.0000000
N2   N   0.222214521592198   0.610866465096972   0.375000000000000   1.0000000
N2   N   0.722378707463521   0.944085393892801   0.375000000000000   1.0000000
N2   N   0.889668215963397   0.443922994590371   0.375000000000000   1.0000000
N2   N   0.055658372690420   0.611513096021780   0.875000000000000   1.0000000
N2   N   0.222325219196071   0.111505719723598   0.875000000000000   1.0000000
N2   N   0.722330068343058   0.611516257591794   0.875000000000000   1.0000000
N2   N   0.555652761673171   0.111500514303325   0.875000000000000   1.0000000
N2   N   0.888998598451820   0.111514316707304   0.875000000000000   1.0000000
B2   B   0.111720158359923   0.055258571534767   0.375000000000000   1.0000000
B2   B   0.611007735122437   0.554938244502254   0.375000000000000   1.0000000
B2   B   0.444920448892691   0.056025371402783   0.375000000000000   1.0000000
B2   B   0.944076929157817   0.554758747618968   0.375000000000000   1.0000000
B2   B   0.777729988789651   0.055009911013492   0.375000000000000   1.0000000
B2   B   0.111193286038231   0.722594988393074   0.875000000000000   1.0000000
B2   B   0.444516219633880   0.722547291742503   0.875000000000000   1.0000000
B2   B   0.277987234307100   0.222714888409716   0.875000000000000   1.0000000
B2   B   0.777805517848149   0.722511930477355   0.875000000000000   1.0000000
B2   B   0.611195504840337   0.222703525592301   0.875000000000000   1.0000000
B2   B   0.944579413198113   0.222671840770387   0.875000000000000   1.0000000
B2   B   0.277782939177638   0.721724202728698   0.375000000000000   1.0000000
B2   B   0.110217383169763   0.220682250848433   0.375000000000000   1.0000000
B2   B   0.448273237314455   0.225115574649002   0.375000000000000   1.0000000
B2   B   0.611846238654217   0.722749294637645   0.375000000000000   1.0000000
B2   B   0.944276097367986   0.721155031097062   0.375000000000000   1.0000000
B2   B   0.777740515531199   0.221729632084864   0.375000000000000   1.0000000
B2   B   0.111220413838763   0.889280579230235   0.875000000000000   1.0000000
B2   B   0.444524199176893   0.889279557460270   0.875000000000000   1.0000000
B2   B   0.277984110337967   0.389342704321515   0.875000000000000   1.0000000
B2   B   0.611185723508487   0.389319674059461   0.875000000000000   1.0000000
B2   B   0.777841004067335   0.889226854445927   0.875000000000000   1.0000000
B2   B   0.944536720505941   0.389323722518686   0.875000000000000   1.0000000
B2   B   0.111117130137232   0.388581948298950   0.375000000000000   1.0000000
B2   B   0.278038854588537   0.888655418660140   0.375000000000000   1.0000000
B2   B   0.611023404748878   0.888575083469763   0.375000000000000   1.0000000
B2   B   0.944816307432536   0.888302455200164   0.375000000000000   1.0000000
B2   B   0.776596952705077   0.387775910460168   0.375000000000000   1.0000000
B2   B   0.277911711852021   0.555926213307445   0.875000000000000   1.0000000
B2   B   0.111273134041341   0.055992131313890   0.875000000000000   1.0000000
B2   B   0.611156073705782   0.555868677177372   0.875000000000000   1.0000000
B2   B   0.444561265835587   0.056015084289609   0.875000000000000   1.0000000
B2   B   0.944496648519544   0.555932625776793   0.875000000000000   1.0000000
B2   B   0.111261435271868   0.555183470911125   0.375000000000000   1.0000000
B2   B   0.777865170469908   0.055966383524106   0.875000000000000   1.0000000
B2   B   0.278809600772806   0.055882700230163   0.375000000000000   1.0000000
B2   B   0.446148898841906   0.555643001140096   0.375000000000000   1.0000000
B2   B   0.775373243683264   0.552909503001488   0.375000000000000   1.0000000
B2   B   0.610995957455964   0.055259218670851   0.375000000000000   1.0000000
B2   B   0.444541555415251   0.555895203605374   0.875000000000000   1.0000000
B2   B   0.944266209087328   0.054645097364378   0.375000000000000   1.0000000
B2   B   0.277870370671478   0.722600911233777   0.875000000000000   1.0000000
B2   B   0.111305807160882   0.222686930367457   0.875000000000000   1.0000000
B2   B   0.444603787428183   0.222717951738344   0.875000000000000   1.0000000
B2   B   0.611148239362879   0.722512089913776   0.875000000000000   1.0000000
B2   B   0.944494084993041   0.722558008980367   0.875000000000000   1.0000000
B2   B   0.777858277247547   0.222675461244426   0.875000000000000   1.0000000
B2   B   0.111196459447807   0.721680488278630   0.375000000000000   1.0000000
B2   B   0.444184525444588   0.721685118139579   0.375000000000000   1.0000000
B2   B   0.278175557502960   0.222719722752563   0.375000000000000   1.0000000
B2   B   0.778002586109281   0.721442959264639   0.375000000000000   1.0000000
B2   B   0.611154787765121   0.223328507037752   0.375000000000000   1.0000000
B2   B   0.944422565218219   0.221706320202422   0.375000000000000   1.0000000
B2   B   0.111278417297776   0.389332268519614   0.875000000000000   1.0000000
B2   B   0.277886390055587   0.889296631812485   0.875000000000000   1.0000000
B2   B   0.611167845891450   0.889239297002467   0.875000000000000   1.0000000
B2   B   0.444610611803039   0.389346509586354   0.875000000000000   1.0000000
B2   B   0.944531789617665   0.889246346207339   0.875000000000000   1.0000000
B2   B   0.111503348160529   0.888455802321740   0.375000000000000   1.0000000
B2   B   0.777824035184810   0.389319488637799   0.875000000000000   1.0000000
B2   B   0.444363525507209   0.888700382523240   0.375000000000000   1.0000000
B2   B   0.276587439880085   0.386749356606936   0.375000000000000   1.0000000
B2   B   0.278210820533131   0.554811216809230   0.375000000000000   1.0000000
B2   B   0.778038168632465   0.888482323184660   0.375000000000000   1.0000000
B2   B   0.944436002285318   0.388482376959690   0.375000000000000   1.0000000
B2   B   0.111209144055463   0.555950019134897   0.875000000000000   1.0000000
B2   B   0.277939459113204   0.056019013816239   0.875000000000000   1.0000000
B2   B   0.777797187877013   0.555884965920570   0.875000000000000   1.0000000
B2   B   0.611181164809013   0.055990522221320   0.875000000000000   1.0000000
B2   B   0.944572020681307   0.055966313935488   0.875000000000000   1.0000000
B2   B   0.055519455098558   0.111263517387268   0.122454031952500   1.0000000
B2   B   0.555388932204701   0.610862467615995   0.122860405114152   1.0000000
B2   B   0.388996975730105   0.111512010274944   0.121089373417916   1.0000000
B2   B   0.888457073213550   0.610946401889775   0.124293293293651   1.0000000
B2   B   0.722116800575578   0.111254144223287   0.121955978751191   1.0000000
B2   B   0.055347702691434   0.777765053827026   0.626442108815225   1.0000000
B2   B   0.388871310089059   0.777776593364571   0.626974130816839   1.0000000
B2   B   0.222297737092967   0.278000495518103   0.627570340693287   1.0000000
B2   B   0.722027839856836   0.777672869534814   0.627482714572768   1.0000000
B2   B   0.555594030557569   0.278180121386511   0.627505603109778   1.0000000
B2   B   0.888699119084061   0.277811333747046   0.626530636536972   1.0000000
B2   B   0.222141981597093   0.777807161904193   0.123542529018337   1.0000000
B2   B   0.055492294466075   0.277838924323794   0.123599037295715   1.0000000
B2   B   0.389052201468551   0.278155860686656   0.121960752643168   1.0000000
B2   B   0.555471514048189   0.777701606137579   0.122458589055210   1.0000000
B2   B   0.888627897387751   0.777711629670743   0.123115279797477   1.0000000
B2   B   0.721995025913921   0.277919489233787   0.122639192539471   1.0000000
B2   B   0.055458216476609   0.944551744213890   0.627603230141708   1.0000000
B2   B   0.388905955907614   0.944657335434013   0.628372804535553   1.0000000
B2   B   0.222265676601654   0.444370919351677   0.625969153243709   1.0000000
B2   B   0.555399385121574   0.444328591495860   0.625821394173213   1.0000000
B2   B   0.722116045898510   0.944487382032464   0.627819138402209   1.0000000
B2   B   0.888513522885439   0.444359583527910   0.625701092281856   1.0000000
B2   B   0.055400771248798   0.444390616803501   0.124753703200591   1.0000000
B2   B   0.222197015322166   0.944630871739016   0.121955415413309   1.0000000
B2   B   0.555519473745341   0.944571237082831   0.121718755459053   1.0000000
B2   B   0.388922024906247   0.444390592961827   0.124148713229825   1.0000000
B2   B   0.888757491365925   0.944486512746080   0.122554690743158   1.0000000
B2   B   0.721708803647282   0.444300080923481   0.124002159107881   1.0000000
B2   B   0.222185665002353   0.611019148267612   0.625428046523678   1.0000000
B2   B   0.055519455098558   0.111263517387268   0.627545968047440   1.0000000
B2   B   0.555388932204701   0.610862467615995   0.627139594886400   1.0000000
B2   B   0.388996975730105   0.111512010274944   0.628910626581861   1.0000000
B2   B   0.888457073213550   0.610946401889775   0.625706706706291   1.0000000
B2   B   0.055311439670933   0.611023657975076   0.124776732269675   1.0000000
B2   B   0.722116800575541   0.111254144223287   0.628044021249229   1.0000000
B2   B   0.222280667855982   0.111390826335079   0.121486688564299   1.0000000
B2   B   0.388931704199098   0.610944121860112   0.123472627780592   1.0000000
B2   B   0.721824493290218   0.610874340011017   0.123404447112910   1.0000000
B2   B   0.555558662579433   0.111427449852857   0.121237134086651   1.0000000
B2   B   0.388931704199098   0.610944121860112   0.626527372219795   1.0000000
B2   B   0.888786471985764   0.111197589114900   0.122748774112410   1.0000000
B2   B   0.222141981597093   0.777807161904193   0.626457470981471   1.0000000
B2   B   0.055492294466075   0.277838924323794   0.626400962704265   1.0000000
B2   B   0.389052201468551   0.278155860686656   0.628039247357238   1.0000000
B2   B   0.555471514048189   0.777701606137579   0.627541410944534   1.0000000
B2   B   0.888627897387751   0.777711629670743   0.626884720202837   1.0000000
B2   B   0.721995025913921   0.277919489233787   0.627360807460620   1.0000000
B2   B   0.055347702691434   0.777765053827026   0.123557891184672   1.0000000
B2   B   0.388871310089059   0.777776593364571   0.123025869183326   1.0000000
B2   B   0.222297737092967   0.278000495518103   0.122429659307186   1.0000000
B2   B   0.722027839856836   0.777672869534814   0.122517285426684   1.0000000
B2   B   0.555594030557569   0.278180121386511   0.122494396890101   1.0000000
B2   B   0.888699119084061   0.277811333747046   0.123469363462829   1.0000000
B2   B   0.055400771248798   0.444390616803501   0.625246296799585   1.0000000
B2   B   0.222197015322166   0.944630871739016   0.628044584586694   1.0000000
B2   B   0.555519473745340   0.944571237082831   0.628281244540638   1.0000000
B2   B   0.388922024906247   0.444390592961827   0.625851286770360   1.0000000
B2   B   0.888757491365925   0.944486512746080   0.627445309256591   1.0000000
B2   B   0.055458216476610   0.944551744213890   0.122396769858065   1.0000000
B2   B   0.721708803647282   0.444300080923481   0.625997840892146   1.0000000
B2   B   0.388905955907614   0.944657335434013   0.121627195464768   1.0000000
B2   B   0.222265676601654   0.444370919351677   0.124030846756175   1.0000000
B2   B   0.222185665002353   0.611019148267612   0.124571953476840   1.0000000
B2   B   0.555399385121574   0.444328591495860   0.124178605826978   1.0000000
B2   B   0.722116045898510   0.944487382032464   0.122180861597574   1.0000000
B2   B   0.888513522885439   0.444359583527910   0.124298907718276   1.0000000
B2   B   0.055311439670931   0.611023657975076   0.625223267730694   1.0000000
B2   B   0.222280667855982   0.111390826335079   0.628513311435782   1.0000000
B2   B   0.721824493290218   0.610874340011082   0.626595552886858   1.0000000
B2   B   0.555558662579433   0.111427449852857   0.628762865913121   1.0000000
B2   B   0.888786471985764   0.111197589114900   0.627251225887799   1.0000000


