data_1
_audit_creation_method   'vasp2cif'
_cell_length_a    14.93631414619966
_cell_length_b    14.936314146199727
_cell_length_c    13.341276283792837
_cell_angle_alpha    90.0
_cell_angle_beta    90.0
_cell_angle_gamma    119.99999999999984

_symmetry_space_group_name_H-M    'P 1'
loop_
_atom_site_label
_atom_site_type_symbol
_atom_site_fract_x
_atom_site_fract_y
_atom_site_fract_z
_atom_site_occupancy
P2   P   0.484088520348510   0.408710926840979   0.375000000000000   1.0000000
N2   N   0.111103688693834   0.055535509808556   0.125172149233412   1.0000000
N2   N   0.611070337700635   0.555543041173615   0.125228155224622   1.0000000
N2   N   0.444422375239579   0.055529965608717   0.125182660412369   1.0000000
N2   N   0.944423618340163   0.555551828530358   0.125173425101644   1.0000000
N2   N   0.777774149850236   0.055553741591783   0.125087298429130   1.0000000
N2   N   0.111091092873678   0.722212213103560   0.624880188972751   1.0000000
N2   N   0.444422375239579   0.722225742964433   0.624817339587635   1.0000000
N2   N   0.277760677879809   0.222201967716176   0.624969452190908   1.0000000
N2   N   0.777750822311337   0.722197332858332   0.624741435984400   1.0000000
N2   N   0.611082454291152   0.222200033108483   0.624813190519542   1.0000000
N2   N   0.944448233133037   0.222231785946466   0.624870567222976   1.0000000
N2   N   0.277757567173715   0.722219940302581   0.125130266991288   1.0000000
N2   N   0.111117558478653   0.222225445905962   0.125168187466921   1.0000000
N2   N   0.444420196436680   0.222196296055135   0.125137292498218   1.0000000
N2   N   0.611082454291152   0.722215754516217   0.125186809480581   1.0000000
N2   N   0.944423618340163   0.722205123143800   0.125173425101644   1.0000000
N2   N   0.777765976172907   0.222223343646132   0.125124346463269   1.0000000
N2   N   0.111093542135506   0.888867357608477   0.624866719814609   1.0000000
N2   N   0.444423644521279   0.888878488927483   0.624868320912607   1.0000000
N2   N   0.277760677879809   0.388892043497132   0.624969452190908   1.0000000
N2   N   0.611070337700635   0.388860629860339   0.624771844775440   1.0000000
N2   N   0.777765976172907   0.888875965860250   0.624875653536691   1.0000000
N2   N   0.944433546701518   0.388897597747377   0.624857589846263   1.0000000
N2   N   0.111103688693834   0.388901512218489   0.125172149233412   1.0000000
N2   N   0.277757567173715   0.888870960204418   0.125130266991288   1.0000000
N2   N   0.611094194536737   0.888886153392071   0.125110229607807   1.0000000
N2   N   0.444377012939890   0.388855173136433   0.124781569591641   1.0000000
N2   N   0.944433546701517   0.888869282287586   0.125142410153612   1.0000000
N2   N   0.777750822311336   0.388886822786405   0.125258564015559   1.0000000
N2   N   0.277759714688311   0.555563409705555   0.624832819068588   1.0000000
N2   N   0.111103688693834   0.055535509808556   0.624827850766531   1.0000000
N2   N   0.611070337700635   0.555543041173615   0.624771844775440   1.0000000
N2   N   0.444422375239580   0.055529965608717   0.624817339587635   1.0000000
N2   N   0.944423618340163   0.555551828530358   0.624826574898494   1.0000000
N2   N   0.111093542135506   0.555559517860104   0.125133280185482   1.0000000
N2   N   0.777774149850236   0.055553741591783   0.624912701570914   1.0000000
N2   N   0.277759714688313   0.055529638316077   0.125167180931437   1.0000000
N2   N   0.444420196436680   0.555557233714969   0.125137292498218   1.0000000
N2   N   0.777740009204983   0.555536671269157   0.125344961905042   1.0000000
N2   N   0.611094194536739   0.055541374477788   0.125110229607806   1.0000000
N2   N   0.444420196436680   0.555557233714973   0.624862707501537   1.0000000
N2   N   0.944448233133036   0.055549780519670   0.125129432776880   1.0000000
N2   N   0.277757567173715   0.722219940302581   0.624869733008663   1.0000000
N2   N   0.111117558478653   0.222225445905961   0.624831812532842   1.0000000
N2   N   0.444420196436680   0.222196296055134   0.624862707501537   1.0000000
N2   N   0.611082454291152   0.722215754516220   0.624813190519542   1.0000000
N2   N   0.944423618340163   0.722205123143801   0.624826574898494   1.0000000
N2   N   0.777765976172909   0.222223343646132   0.624875653536691   1.0000000
N2   N   0.111091092873678   0.722212213103560   0.125119811027186   1.0000000
N2   N   0.444422375239579   0.722225742964433   0.125182660412369   1.0000000
N2   N   0.277760677879809   0.222201967716204   0.125030547809036   1.0000000
N2   N   0.777750822311337   0.722197332858332   0.125258564015558   1.0000000
N2   N   0.611082454291152   0.222200033108483   0.125186809480581   1.0000000
N2   N   0.944448233133037   0.222231785946466   0.125129432776880   1.0000000
N2   N   0.111103688693834   0.388901512218489   0.624827850766531   1.0000000
N2   N   0.277757567173715   0.888870960204418   0.624869733008662   1.0000000
N2   N   0.611094194536737   0.888886153392071   0.624889770391776   1.0000000
N2   N   0.444377012939890   0.388855173136433   0.625218430408119   1.0000000
N2   N   0.944433546701518   0.888869282287586   0.624857589846265   1.0000000
N2   N   0.111093542135506   0.888867357608477   0.125133280185482   1.0000000
N2   N   0.777750822311337   0.388886822786405   0.624741435984400   1.0000000
N2   N   0.444423644521279   0.888878488927475   0.125131679087247   1.0000000
N2   N   0.277760677879809   0.388892043497131   0.125030547809036   1.0000000
N2   N   0.277759714688311   0.555563409705555   0.125167180931437   1.0000000
N2   N   0.611070337700635   0.388860629860337   0.125228155224623   1.0000000
N2   N   0.777765976172913   0.888875965860251   0.125124346463270   1.0000000
N2   N   0.944433546701518   0.388897597747377   0.125142410153612   1.0000000
N2   N   0.111093542135506   0.555559517860104   0.624866719814609   1.0000000
N2   N   0.277759714688313   0.055529638316076   0.624832819068588   1.0000000
N2   N   0.777740009204984   0.555536671269157   0.624655038094960   1.0000000
N2   N   0.611094194536737   0.055541374477788   0.624889770391776   1.0000000
N2   N   0.944448233133037   0.055549780519671   0.624870567222976   1.0000000
N2   N   0.059031370237212   0.113137307500873   0.375000000000000   1.0000000
N2   N   0.555776254232038   0.617504484336693   0.375000000000000   1.0000000
N2   N   0.389145104663867   0.108563968298452   0.375000000000000   1.0000000
N2   N   0.885771519170741   0.609552426251799   0.375000000000000   1.0000000
N2   N   0.724312377186690   0.111593891099443   0.375000000000000   1.0000000
N2   N   0.055527003562727   0.777766013253119   0.875000000000000   1.0000000
N2   N   0.388870058174242   0.777766324284638   0.875000000000000   1.0000000
N2   N   0.222194799400173   0.277764066366826   0.875000000000000   1.0000000
N2   N   0.722197608139685   0.777764648272646   0.875000000000000   1.0000000
N2   N   0.555530028433669   0.277768250494267   0.875000000000000   1.0000000
N2   N   0.888865492800517   0.277766081268617   0.875000000000000   1.0000000
N2   N   0.221499049338525   0.777416191335718   0.375000000000000   1.0000000
N2   N   0.059031370237212   0.279227396069690   0.375000000000000   1.0000000
N2   N   0.396829115665429   0.279829657968045   0.375000000000000   1.0000000
N2   N   0.556497058824544   0.780898951448962   0.375000000000000   1.0000000
N2   N   0.888084486266572   0.777473066991011   0.375000000000000   1.0000000
N2   N   0.723546208501183   0.277019811183743   0.375000000000000   1.0000000
N2   N   0.055528134161490   0.944433330509101   0.875000000000000   1.0000000
N2   N   0.388870058174244   0.944437067223318   0.875000000000000   1.0000000
N2   N   0.222194861441507   0.444428054804602   0.875000000000000   1.0000000
N2   N   0.555529054868892   0.444431194101110   0.875000000000000   1.0000000
N2   N   0.722198658872207   0.944432141742163   0.875000000000000   1.0000000
N2   N   0.888862973504942   0.444429662182640   0.875000000000000   1.0000000
N2   N   0.056928366451451   0.444829951204664   0.375000000000000   1.0000000
N2   N   0.222062631716941   0.943893802188919   0.375000000000000   1.0000000
N2   N   0.556591498022228   0.944962415677852   0.375000000000000   1.0000000
N2   N   0.396829115665370   0.450332791030765   0.375000000000000   1.0000000
N2   N   0.891124064919879   0.946059570114734   0.375000000000000   1.0000000
N2   N   0.717814035361892   0.442247324719133   0.375000000000000   1.0000000
N2   N   0.222196979542879   0.611094191242787   0.875000000000000   1.0000000
N2   N   0.055528633615922   0.111097981366355   0.875000000000000   1.0000000
N2   N   0.555530028433669   0.611095111272574   0.875000000000000   1.0000000
N2   N   0.388866833810340   0.111104601271555   0.875000000000000   1.0000000
N2   N   0.888859916847231   0.611096625090346   0.875000000000000   1.0000000
N2   N   0.054303947760871   0.610601111032279   0.375000000000000   1.0000000
N2   N   0.722198658872206   0.111099850463499   0.875000000000000   1.0000000
N2   N   0.226082759171801   0.113558077033196   0.375000000000000   1.0000000
N2   N   0.389145104663865   0.613914469699008   0.375000000000000   1.0000000
N2   N   0.717814035361878   0.608900043976030   0.375000000000000   1.0000000
N2   N   0.556497058824547   0.108931440708759   0.375000000000000   1.0000000
N2   N   0.388866833810340   0.611095565872319   0.875000000000000   1.0000000
N2   N   0.891767681880165   0.112550507606763   0.375000000000000   1.0000000
N2   N   0.222198312460709   0.777765822896964   0.875000000000000   1.0000000
N2   N   0.055528633615922   0.277763985582819   0.875000000000000   1.0000000
N2   N   0.388863776861624   0.277766687050159   0.875000000000000   1.0000000
N2   N   0.555533355178943   0.777764975618712   0.875000000000000   1.0000000
N2   N   0.888862973504946   0.777766644655773   0.875000000000000   1.0000000
N2   N   0.722197608139685   0.277766293200538   0.875000000000000   1.0000000
N2   N   0.054303947760864   0.777036170061824   0.375000000000000   1.0000000
N2   N   0.388923945686245   0.778674456694310   0.375000000000000   1.0000000
N2   N   0.227634855790502   0.280484094561908   0.375000000000000   1.0000000
N2   N   0.723546208501182   0.779859730650619   0.375000000000000   1.0000000
N2   N   0.555776254232039   0.271605103228653   0.375000000000000   1.0000000
N2   N   0.891124064919878   0.278397828138670   0.375000000000000   1.0000000
N2   N   0.055528134161490   0.444428136985540   0.875000000000000   1.0000000
N2   N   0.222196979542881   0.944436121633459   0.875000000000000   1.0000000
N2   N   0.555534534751733   0.944433934042446   0.875000000000000   1.0000000
N2   N   0.388863776861623   0.444430423144996   0.875000000000000   1.0000000
N2   N   0.888865492800517   0.944432744864985   0.875000000000000   1.0000000
N2   N   0.056928366451452   0.945431748580176   0.375000000000000   1.0000000
N2   N   0.722194098855306   0.444430766603792   0.875000000000000   1.0000000
N2   N   0.388923945686242   0.943582822325215   0.375000000000000   1.0000000
N2   N   0.226082759171801   0.445858015471994   0.375000000000000   1.0000000
N2   N   0.222062631716940   0.611502162861379   0.375000000000000   1.0000000
N2   N   0.724312377186896   0.946051819420565   0.375000000000000   1.0000000
N2   N   0.888084486266572   0.443944752608894   0.375000000000000   1.0000000
N2   N   0.055527003562727   0.611094323643048   0.875000000000000   1.0000000
N2   N   0.222194861441506   0.111100139970304   0.875000000000000   1.0000000
N2   N   0.722194098855305   0.611096665584884   0.875000000000000   1.0000000
N2   N   0.555533355178942   0.111101712893458   0.875000000000000   1.0000000
N2   N   0.888864946294726   0.111099139814004   0.875000000000000   1.0000000
B2   B   0.113912594898089   0.057151164394273   0.375000000000000   1.0000000
B2   B   0.609005524005310   0.563718492865122   0.375000000000000   1.0000000
B2   B   0.445262969421151   0.053642023784570   0.375000000000000   1.0000000
B2   B   0.943115876384310   0.555014595119774   0.375000000000000   1.0000000
B2   B   0.780550763982262   0.056942048657720   0.375000000000000   1.0000000
B2   B   0.111091108640689   0.722212220987139   0.875000000000000   1.0000000
B2   B   0.444420084090613   0.722230400171003   0.875000000000000   1.0000000
B2   B   0.277711326293093   0.222180533739942   0.875000000000000   1.0000000
B2   B   0.777780336527204   0.722246207729606   0.875000000000000   1.0000000
B2   B   0.611101417268097   0.222186447979872   0.875000000000000   1.0000000
B2   B   0.944412039195750   0.222200655319503   0.875000000000000   1.0000000
B2   B   0.277591594323435   0.722601293529281   0.375000000000000   1.0000000
B2   B   0.115064696607765   0.224199014970545   0.375000000000000   1.0000000
B2   B   0.445256043646248   0.217411784779702   0.375000000000000   1.0000000
B2   B   0.613342549706973   0.728328353954071   0.375000000000000   1.0000000
B2   B   0.943115876384312   0.721434614597649   0.375000000000000   1.0000000
B2   B   0.780273721389677   0.222324441411347   0.375000000000000   1.0000000
B2   B   0.111082082070098   0.888875575719655   0.875000000000000   1.0000000
B2   B   0.444424671503957   0.888879002418849   0.875000000000000   1.0000000
B2   B   0.277711326293093   0.388864125886527   0.875000000000000   1.0000000
B2   B   0.611104035303688   0.388866343545831   0.875000000000000   1.0000000
B2   B   0.777769111060525   0.888904774686037   0.875000000000000   1.0000000
B2   B   0.944426821951190   0.388867442889264   0.875000000000000   1.0000000
B2   B   0.113912594898089   0.390094763837101   0.375000000000000   1.0000000
B2   B   0.277591594323437   0.888323634127561   0.375000000000000   1.0000000
B2   B   0.613144236444893   0.891356009334239   0.375000000000000   1.0000000
B2   B   0.945518574230747   0.889632992082170   0.375000000000000   1.0000000
B2   B   0.777171973563426   0.387653840156780   0.375000000000000   1.0000000
B2   B   0.277732774481104   0.555546003857510   0.875000000000000   1.0000000
B2   B   0.111061938694842   0.055530136752940   0.875000000000000   1.0000000
B2   B   0.611104035303688   0.555571025090990   0.875000000000000   1.0000000
B2   B   0.444420084090613   0.055523017253164   0.875000000000000   1.0000000
B2   B   0.944438982831886   0.555544851151099   0.875000000000000   1.0000000
B2   B   0.110887545764727   0.555784877622772   0.375000000000000   1.0000000
B2   B   0.777761113704028   0.055547223518670   0.875000000000000   1.0000000
B2   B   0.278164737579917   0.054572640212370   0.375000000000000   1.0000000
B2   B   0.445256043646192   0.561177592199824   0.375000000000000   1.0000000
B2   B   0.774755728231052   0.554044530781988   0.375000000000000   1.0000000
B2   B   0.613144236444894   0.055121560443826   0.375000000000000   1.0000000
B2   B   0.444406935497372   0.555560334486551   0.875000000000000   1.0000000
B2   B   0.947498422284839   0.057344092396373   0.375000000000000   1.0000000
B2   B   0.277750398902010   0.722214174161240   0.875000000000000   1.0000000
B2   B   0.111050405200722   0.222191869267018   0.875000000000000   1.0000000
B2   B   0.444406935497372   0.222179934344100   0.875000000000000   1.0000000
B2   B   0.611101417268097   0.722248302621407   0.875000000000000   1.0000000
B2   B   0.944438982831880   0.722227465014348   0.875000000000000   1.0000000
B2   B   0.777769111060524   0.222197669707920   0.875000000000000   1.0000000
B2   B   0.110219056815618   0.721776195074562   0.375000000000000   1.0000000
B2   B   0.445262969421152   0.724954278969929   0.375000000000000   1.0000000
B2   B   0.282901601853794   0.225168966999731   0.375000000000000   1.0000000
B2   B   0.777171973563428   0.722851466739819   0.375000000000000   1.0000000
B2   B   0.613342549706978   0.218347529086187   0.375000000000000   1.0000000
B2   B   0.947498422284847   0.223487663222077   0.375000000000000   1.0000000
B2   B   0.111061938694842   0.388865135275325   0.875000000000000   1.0000000
B2   B   0.277750398902010   0.888869558074152   0.875000000000000   1.0000000
B2   B   0.611099228290688   0.888896246086749   0.875000000000000   1.0000000
B2   B   0.444396263696973   0.388864798515278   0.875000000000000   1.0000000
B2   B   0.944426821951190   0.888892712395124   0.875000000000000   1.0000000
B2   B   0.110887545764742   0.888436001475340   0.375000000000000   1.0000000
B2   B   0.777780336527204   0.388867462130977   0.875000000000000   1.0000000
B2   B   0.445232707887765   0.889283020610759   0.375000000000000   1.0000000
B2   B   0.282901601853795   0.391065968187332   0.375000000000000   1.0000000
B2   B   0.278164737579916   0.556925430701079   0.375000000000000   1.0000000
B2   B   0.609005524005087   0.378620364473534   0.375000000000000   1.0000000
B2   B   0.780273721389674   0.891282613311751   0.375000000000000   1.0000000
B2   B   0.945518574230747   0.389218915481851   0.375000000000000   1.0000000
B2   B   0.111082082070098   0.555539839683931   0.875000000000000   1.0000000
B2   B   0.277732774481104   0.055520103956883   0.875000000000000   1.0000000
B2   B   0.777783725468645   0.555558529400928   0.875000000000000   1.0000000
B2   B   0.611099228290688   0.055536315537433   0.875000000000000   1.0000000
B2   B   0.944412039195750   0.055544717209443   0.875000000000000   1.0000000
B2   B   0.055519828958235   0.111072636073251   0.124931088331715   1.0000000
B2   B   0.555521487404644   0.611217182712130   0.124605788936159   1.0000000
B2   B   0.388796437375808   0.110938504939053   0.124818971941671   1.0000000
B2   B   0.888991897669700   0.611162615501632   0.124914665904970   1.0000000
B2   B   0.722218290845361   0.111080742615047   0.124882635034965   1.0000000
B2   B   0.055584520749933   0.777777943406257   0.625071760614543   1.0000000
B2   B   0.388826927392962   0.777797513160730   0.625076876646747   1.0000000
B2   B   0.222119465714763   0.277726399524098   0.625297347255313   1.0000000
B2   B   0.722252591674149   0.777857352857548   0.625157135131825   1.0000000
B2   B   0.555521487404644   0.277637638025960   0.625394211063885   1.0000000
B2   B   0.888907417660562   0.277780054326522   0.625091559809830   1.0000000
B2   B   0.222190429295343   0.777761881314335   0.124928670267905   1.0000000
B2   B   0.055519828958242   0.277780526218282   0.124931088331715   1.0000000
B2   B   0.388742526679254   0.277603693636558   0.124371226151093   1.0000000
B2   B   0.555516444846667   0.777849272797507   0.124861175423021   1.0000000
B2   B   0.888957322760211   0.777823332439620   0.124913809757867   1.0000000
B2   B   0.722252591674149   0.277728572150064   0.124842864868165   1.0000000
B2   B   0.055546368217662   0.944406119567020   0.625059098097462   1.0000000
B2   B   0.388826927392964   0.944362747565691   0.625076876646747   1.0000000
B2   B   0.222130542108421   0.444477445093195   0.625155334572598   1.0000000
B2   B   0.555560279231432   0.444446806282382   0.625594632080606   1.0000000
B2   B   0.722218290845359   0.944470881563755   0.625117364965200   1.0000000
B2   B   0.888957322760210   0.444467323654003   0.625086190242207   1.0000000
B2   B   0.055546368217662   0.444473581983808   0.124940901902526   1.0000000
B2   B   0.222170516169925   0.944354850472447   0.124927261028166   1.0000000
B2   B   0.555516523431509   0.944424928382360   0.124898657385599   1.0000000
B2   B   0.388742526679254   0.444472166376021   0.124371226151093   1.0000000
B2   B   0.888907417660568   0.944460696667316   0.124908440190170   1.0000000
B2   B   0.722316964066918   0.444456528153153   0.124776174957962   1.0000000
B2   B   0.222170516169926   0.611148999030770   0.625072738971759   1.0000000
B2   B   0.055519828958235   0.111072636073251   0.625068911668436   1.0000000
B2   B   0.555521487404644   0.611217182712134   0.625394211063885   1.0000000
B2   B   0.388796437375808   0.110938504939042   0.625181028058312   1.0000000
B2   B   0.888991897669700   0.611162615501632   0.625085334095057   1.0000000
B2   B   0.055584520749934   0.611139910676943   0.124928239385516   1.0000000
B2   B   0.722218290845362   0.111080742615047   0.625117364965200   1.0000000
B2   B   0.222130542108422   0.110986430348662   0.124844665427521   1.0000000
B2   B   0.388796437375806   0.611191265770113   0.124818971941671   1.0000000
B2   B   0.722316964066918   0.611193769247478   0.124776174957963   1.0000000
B2   B   0.555516444846666   0.111000505382216   0.124861175423022   1.0000000
B2   B   0.388796437375808   0.611191265770113   0.625181028058312   1.0000000
B2   B   0.888887282861917   0.111110308097624   0.124911922333104   1.0000000
B2   B   0.222190429295337   0.777761881314335   0.625071329732190   1.0000000
B2   B   0.055519828958235   0.277780526218282   0.625068911668436   1.0000000
B2   B   0.388742526679254   0.277603693636558   0.625628773849029   1.0000000
B2   B   0.555516444846664   0.777849272797510   0.625138824576966   1.0000000
B2   B   0.888957322760210   0.777823332439621   0.625086190242201   1.0000000
B2   B   0.722252591674149   0.277728572150064   0.625157135131825   1.0000000
B2   B   0.055584520749933   0.777777943406257   0.124928239385516   1.0000000
B2   B   0.388826927392963   0.777797513160730   0.124923123353440   1.0000000
B2   B   0.222119465714764   0.277726399524098   0.124702652744763   1.0000000
B2   B   0.722252591674149   0.777857352857548   0.124842864868165   1.0000000
B2   B   0.555521487404643   0.277637638025960   0.124605788936159   1.0000000
B2   B   0.888907417660565   0.277780054326522   0.124908440190170   1.0000000
B2   B   0.055546368217670   0.444473581983808   0.625059098097462   1.0000000
B2   B   0.222170516169926   0.944354850472447   0.625072738971759   1.0000000
B2   B   0.555516523431509   0.944424928382360   0.625101342614299   1.0000000
B2   B   0.388742526679257   0.444472166376022   0.625628773849029   1.0000000
B2   B   0.888907417660562   0.944460696667316   0.625091559809830   1.0000000
B2   B   0.055546368217662   0.944406119567020   0.124940901902526   1.0000000
B2   B   0.722316964066917   0.444456528153154   0.625223825042163   1.0000000
B2   B   0.388826927392962   0.944362747565691   0.124923123353440   1.0000000
B2   B   0.222130542108421   0.444477445093195   0.124844665427520   1.0000000
B2   B   0.222170516169926   0.611148999030770   0.124927261028166   1.0000000
B2   B   0.555560279231432   0.444446806282380   0.124405367919312   1.0000000
B2   B   0.722218290845359   0.944470881563755   0.124882635034965   1.0000000
B2   B   0.888957322760211   0.444467323654002   0.124913809757867   1.0000000
B2   B   0.055584520749933   0.611139910676943   0.625071760614543   1.0000000
B2   B   0.222130542108422   0.110986430348661   0.625155334572598   1.0000000
B2   B   0.722316964066917   0.611193769247478   0.625223825042163   1.0000000
B2   B   0.555516444846667   0.111000505382215   0.625138824576966   1.0000000
B2   B   0.888887282861917   0.111110308097624   0.625088077666994   1.0000000


