data_1
_audit_creation_method   'vasp2cif'
_cell_length_a    17.52789999999977
_cell_length_b    17.52789999999977
_cell_length_c    15.0
_cell_angle_alpha    90.0
_cell_angle_beta    90.0
_cell_angle_gamma    119.99999999999916

_symmetry_space_group_name_H-M    'P 1'
loop_
_atom_site_label
_atom_site_type_symbol
_atom_site_fract_x
_atom_site_fract_y
_atom_site_fract_z
_atom_site_occupancy
B2   B   0.907119420890113   0.953714527183384   0.111022090049749   1.0000000
B2   B   0.904805010108258   0.095109439743492   0.111049807862306   1.0000000
B2   B   0.903996086424187   0.237785895771289   0.111094337668949   1.0000000
B2   B   0.903822669385030   0.380915090928723   0.111038167348353   1.0000000
B2   B   0.904264697926099   0.524153789724942   0.111003158676328   1.0000000
B2   B   0.906722420519576   0.667740139712917   0.111149500779871   1.0000000
B2   B   0.908800873845371   0.811588912349716   0.111074063644269   1.0000000
B2   B   0.049711276547122   0.953391499842328   0.111015346477399   1.0000000
B2   B   0.048326838998302   0.095466757114014   0.111013402992944   1.0000000
B2   B   0.046864241235293   0.237520011112260   0.111019860057736   1.0000000
B2   B   0.046375433043132   0.380369295849138   0.111039125233185   1.0000000
B2   B   0.046700677883597   0.523575177519237   0.111037908431836   1.0000000
B2   B   0.048098764723281   0.666973367564194   0.111058843230603   1.0000000
B2   B   0.049710897581017   0.810355973747030   0.111076721143615   1.0000000
B2   B   0.191897647940142   0.952806732038288   0.111053247446970   1.0000000
B2   B   0.191236789602893   0.095287633767837   0.111053976788957   1.0000000
B2   B   0.189776463745097   0.237156739794617   0.110988691174602   1.0000000
B2   B   0.188695448760466   0.379611661879735   0.110940830736268   1.0000000
B2   B   0.188855484499253   0.523004479536747   0.111052831240012   1.0000000
B2   B   0.189669959890237   0.666519087285042   0.111096910395152   1.0000000
B2   B   0.191520175243212   0.809783571620133   0.111043881402307   1.0000000
B2   B   0.334296549969225   0.952448116692239   0.111065772133032   1.0000000
B2   B   0.334104044648411   0.095313459755343   0.111106002458934   1.0000000
B2   B   0.332955856973292   0.237107495346272   0.111012864803886   1.0000000
B2   B   0.330737971968449   0.377306925319047   0.110854754749671   1.0000000
B2   B   0.330312239243220   0.522432008969192   0.110820130911079   1.0000000
B2   B   0.330643049848886   0.666175215281981   0.111038405198365   1.0000000
B2   B   0.333783139982473   0.809351932332834   0.111083700276527   1.0000000
B2   B   0.476778999323252   0.951754996836945   0.111004137165265   1.0000000
B2   B   0.476739235365395   0.095528502882705   0.111019115626930   1.0000000
B2   B   0.476323040915072   0.239080239205789   0.111022228593461   1.0000000
B2   B   0.474420267053683   0.381156226748799   0.110947893711091   1.0000000
B2   B   0.470229726449454   0.663967410634095   0.110957514620394   1.0000000
B2   B   0.476462803046569   0.807900259088869   0.111000969893033   1.0000000
B2   B   0.619376704616893   0.950918180414783   0.111011328194902   1.0000000
B2   B   0.619115772492312   0.094963898475834   0.111017217299806   1.0000000
B2   B   0.618907555790032   0.239038033859977   0.111032801157042   1.0000000
B2   B   0.618642947518014   0.383232294699086   0.110995748579346   1.0000000
B2   B   0.618681772905356   0.528594711930782   0.111011757565653   1.0000000
B2   B   0.619714909240362   0.806831098926895   0.111081004163751   1.0000000
B2   B   0.762683749693307   0.952174447295952   0.111057256384989   1.0000000
B2   B   0.761674905416129   0.094842253195649   0.111062418701818   1.0000000
B2   B   0.761333465657849   0.238202406080687   0.111098375844412   1.0000000
B2   B   0.761230334001971   0.381696012958967   0.111012207143644   1.0000000
B2   B   0.761652449701985   0.525197530142602   0.111092852634653   1.0000000
B2   B   0.767699228056953   0.670411240622780   0.111199373259769   1.0000000
B2   B   0.768131096219436   0.812377585383258   0.111147200139650   1.0000000
C2   C   0.468913048493321   0.518795866030667   0.110803980090901   1.0000000
N2   N   0.954869946062221   0.906247099256128   0.110978830968290   1.0000000
N2   N   0.953341733746872   0.048300349958955   0.110996594171910   1.0000000
N2   N   0.951826859067481   0.190203341398310   0.111051185307970   1.0000000
N2   N   0.951344029690369   0.333050459945149   0.111042715468502   1.0000000
N2   N   0.951488843878032   0.476182403947912   0.110986001569765   1.0000000
N2   N   0.952922637223898   0.619386990010574   0.111036937107156   1.0000000
N2   N   0.954751017139735   0.762854249074528   0.111079498315513   1.0000000
N2   N   0.096939478976944   0.905459130806976   0.111031414004640   1.0000000
N2   N   0.096395446064768   0.048269126936521   0.111006596336607   1.0000000
N2   N   0.095103862309454   0.190399569620644   0.110987653903791   1.0000000
N2   N   0.094131675773830   0.332685830696980   0.110991533058308   1.0000000
N2   N   0.094087162655489   0.475600102270244   0.111042301893941   1.0000000
N2   N   0.094819967155728   0.618830401464708   0.111046358510334   1.0000000
N2   N   0.096444951473442   0.762186257168123   0.111044663871327   1.0000000
N2   N   0.239249479377820   0.904973364843176   0.111028292063560   1.0000000
N2   N   0.239131049953858   0.048001299075365   0.111059776312911   1.0000000
N2   N   0.238254286332105   0.190457472542843   0.111027717412295   1.0000000
N2   N   0.236958233039784   0.332468902216630   0.110878047357209   1.0000000
N2   N   0.236486797683017   0.474771179896546   0.110895332802384   1.0000000
N2   N   0.236410668078545   0.618201446868118   0.111076203317743   1.0000000
N2   N   0.238604324533966   0.761711250497983   0.111067568433067   1.0000000
N2   N   0.381679899154586   0.904448610895209   0.111051471518610   1.0000000
N2   N   0.381710276979332   0.047780725409541   0.111055783383391   1.0000000
N2   N   0.381357340058181   0.190811031316747   0.111061400316164   1.0000000
N2   N   0.380167695133357   0.332763377140653   0.110855651572537   1.0000000
N2   N   0.379037332768196   0.473276651858304   0.110770548342072   1.0000000
N2   N   0.376575301108345   0.616928034114506   0.110886958487510   1.0000000
N2   N   0.381054918444396   0.761003187700287   0.111020883015406   1.0000000
N2   N   0.524108948860852   0.903113672103822   0.110960558594637   1.0000000
N2   N   0.524051889970633   0.047270099663364   0.110983082562076   1.0000000
N2   N   0.523847746750728   0.191345307053791   0.110999118840570   1.0000000
N2   N   0.523348509493170   0.335521172967246   0.110940034052852   1.0000000
N2   N   0.519851218144913   0.479202209484684   0.110897292117886   1.0000000
N2   N   0.502221177969082   0.603460679397642   0.110723151064830   1.0000000
N2   N   0.523804368909266   0.758253540786995   0.111013721139244   1.0000000
N2   N   0.667057610147470   0.902480313227684   0.111053473979040   1.0000000
N2   N   0.666440142158981   0.046501672604974   0.110996844179742   1.0000000
N2   N   0.666169792658302   0.190680303657016   0.111054877914151   1.0000000
N2   N   0.665871246105899   0.334986627919739   0.110988420230379   1.0000000
N2   N   0.665204032175508   0.479510793846281   0.111025603820996   1.0000000
N2   N   0.673448757769148   0.623379773510377   0.111075652555431   1.0000000
N2   N   0.674432914250420   0.766023539496926   0.111104888758034   1.0000000
N2   N   0.812032029091880   0.906345177251328   0.111078142022947   1.0000000
N2   N   0.809465196789642   0.047232636611345   0.111015908338082   1.0000000
N2   N   0.808800789626274   0.190193037121173   0.111099454727809   1.0000000
N2   N   0.808553930849791   0.333629622128080   0.111036290863420   1.0000000
N2   N   0.808614780824919   0.477000007283083   0.110984474815478   1.0000000
N2   N   0.811319256040038   0.620175802583050   0.111194852775142   1.0000000
N2   N   0.814262809282993   0.764384544489105   0.111136928843346   1.0000000
O2   O   0.629515361176310   0.672513352976596   0.111059594897577   1.0000000


