data_1
_audit_creation_method   'vasp2cif'
_cell_length_a    14.93631414619966
_cell_length_b    14.936314146199727
_cell_length_c    13.341276283792837
_cell_angle_alpha    90.0
_cell_angle_beta    90.0
_cell_angle_gamma    119.99999999999984

_symmetry_space_group_name_H-M    'P 1'
loop_
_atom_site_label
_atom_site_type_symbol
_atom_site_fract_x
_atom_site_fract_y
_atom_site_fract_z
_atom_site_occupancy
Ga2   Ga   0.444444444444443   0.388888888888886   0.375000000000000   1.0000000
N2   N   0.111089994148472   0.055536535110614   0.124935212638321   1.0000000
N2   N   0.611133961473325   0.555587900207887   0.125075015496298   1.0000000
N2   N   0.444446540962142   0.055536535110614   0.124935212638321   1.0000000
N2   N   0.944449964931706   0.555559991029851   0.125083000464369   1.0000000
N2   N   0.777777777777779   0.055555555555557   0.125045848739384   1.0000000
N2   N   0.111111111111114   0.722222222222221   0.624927472698300   1.0000000
N2   N   0.444446540962142   0.722243339184863   0.625064787361679   1.0000000
N2   N   0.277745433125448   0.222199371860010   0.624924984503702   1.0000000
N2   N   0.777796798222729   0.722243339184863   0.625064787361679   1.0000000
N2   N   0.611121231178768   0.222212102154568   0.625064951503773   1.0000000
N2   N   0.944434951486402   0.222218836200463   0.624955915834863   1.0000000
N2   N   0.277773342303485   0.722223307235191   0.125083000464369   1.0000000
N2   N   0.111090870975814   0.222212102154568   0.124935048496226   1.0000000
N2   N   0.444453938734562   0.222199371860010   0.125075015496298   1.0000000
N2   N   0.611121231178768   0.722242462357521   0.124935048496226   1.0000000
N2   N   0.944449964931706   0.722223307235191   0.125083000464369   1.0000000
N2   N   0.777783884714061   0.222218836200463   0.125044084165137   1.0000000
N2   N   0.111110026098145   0.888883368401623   0.624916999535638   1.0000000
N2   N   0.444450319381697   0.888891826357513   0.624937271006045   1.0000000
N2   N   0.277745433125448   0.388879394598767   0.624924984503702   1.0000000
N2   N   0.611133961473325   0.388879394598767   0.624924984503702   1.0000000
N2   N   0.777783884714061   0.888898381846926   0.624955915834863   1.0000000
N2   N   0.944441506975816   0.388883013951631   0.624937271006045   1.0000000
N2   N   0.111089994148472   0.388886792371187   0.124935212638321   1.0000000
N2   N   0.277773342303485   0.888883368401623   0.125083000464369   1.0000000
N2   N   0.611114497132873   0.888898381846926   0.125044084165137   1.0000000
N2   N   0.444444444444443   0.388888888888886   0.128405804537857   1.0000000
N2   N   0.944441506975816   0.888891826357513   0.125062728993955   1.0000000
N2   N   0.777796798222729   0.388886792371187   0.124935212638321   1.0000000
N2   N   0.277771678528110   0.555561654805226   0.624993369040679   1.0000000
N2   N   0.111089994148472   0.055536535110614   0.625064787361679   1.0000000
N2   N   0.611133961473325   0.555587900207887   0.624924984503702   1.0000000
N2   N   0.444446540962142   0.055536535110614   0.625064787361679   1.0000000
N2   N   0.944449964931706   0.555559991029851   0.624916999535638   1.0000000
N2   N   0.111110026098145   0.555559991029851   0.125083000464369   1.0000000
N2   N   0.777777777777779   0.055555555555557   0.624954151260616   1.0000000
N2   N   0.277771678528110   0.055543357056227   0.125006630959321   1.0000000
N2   N   0.444453938734562   0.555587900207887   0.125075015496298   1.0000000
N2   N   0.777789976277109   0.555561654805226   0.125006630959321   1.0000000
N2   N   0.611114497132873   0.055549448619282   0.125044084165137   1.0000000
N2   N   0.444453938734562   0.555587900207887   0.624924984503702   1.0000000
N2   N   0.944434951486402   0.055549448619282   0.125044084165137   1.0000000
N2   N   0.277773342303485   0.722223307235191   0.624916999535638   1.0000000
N2   N   0.111090870975814   0.222212102154568   0.625064951503773   1.0000000
N2   N   0.444453938734562   0.222199371860010   0.624924984503702   1.0000000
N2   N   0.611121231178768   0.722242462357521   0.625064951503773   1.0000000
N2   N   0.944449964931706   0.722223307235191   0.624916999535638   1.0000000
N2   N   0.777783884714061   0.222218836200463   0.624955915834863   1.0000000
N2   N   0.111111111111114   0.722222222222221   0.125072527301701   1.0000000
N2   N   0.444446540962142   0.722243339184863   0.124935212638321   1.0000000
N2   N   0.277745433125448   0.222199371860010   0.125075015496298   1.0000000
N2   N   0.777796798222729   0.722243339184863   0.124935212638321   1.0000000
N2   N   0.611121231178768   0.222212102154568   0.124935048496226   1.0000000
N2   N   0.944434951486402   0.222218836200463   0.125044084165137   1.0000000
N2   N   0.111089994148472   0.388886792371187   0.625064787361679   1.0000000
N2   N   0.277773342303485   0.888883368401623   0.624916999535638   1.0000000
N2   N   0.611114497132873   0.888898381846926   0.624955915834863   1.0000000
N2   N   0.444444444444443   0.388888888888886   0.621594195462143   1.0000000
N2   N   0.944441506975816   0.888891826357513   0.624937271006045   1.0000000
N2   N   0.111110026098145   0.888883368401623   0.125083000464369   1.0000000
N2   N   0.777796798222729   0.388886792371187   0.625064787361679   1.0000000
N2   N   0.444450319381697   0.888891826357513   0.125062728993955   1.0000000
N2   N   0.277745433125448   0.388879394598767   0.125075015496298   1.0000000
N2   N   0.277771678528110   0.555561654805226   0.125006630959321   1.0000000
N2   N   0.611133961473325   0.388879394598767   0.125075015496298   1.0000000
N2   N   0.777783884714061   0.888898381846926   0.125044084165137   1.0000000
N2   N   0.944441506975816   0.388883013951631   0.125062728993955   1.0000000
N2   N   0.111110026098145   0.555559991029851   0.624916999535638   1.0000000
N2   N   0.277771678528110   0.055543357056227   0.624993369040679   1.0000000
N2   N   0.777789976277109   0.555561654805226   0.624993369040679   1.0000000
N2   N   0.611114497132873   0.055549448619282   0.624955915834863   1.0000000
N2   N   0.944434951486402   0.055549448619282   0.624955915834863   1.0000000
N2   N   0.054450448688311   0.110366978621181   0.375000000000000   1.0000000
N2   N   0.556116188829618   0.612232377659236   0.375000000000000   1.0000000
N2   N   0.387745303915594   0.104621133769054   0.375000000000000   1.0000000
N2   N   0.891098799694526   0.612216066513931   0.375000000000000   1.0000000
N2   N   0.722424679300552   0.110908654032784   0.375000000000000   1.0000000
N2   N   0.055555271342586   0.777778061990750   0.875000000000000   1.0000000
N2   N   0.388890191555671   0.777779116397179   0.875000000000000   1.0000000
N2   N   0.222226593639891   0.277779963486617   0.875000000000000   1.0000000
N2   N   0.722222250400372   0.777777668483857   0.875000000000000   1.0000000
N2   N   0.555553369846719   0.277779963486617   0.875000000000000   1.0000000
N2   N   0.888888500064075   0.277777000128151   0.875000000000000   1.0000000
N2   N   0.221785930241221   0.777559631787278   0.375000000000000   1.0000000
N2   N   0.054450448688311   0.277416803400459   0.375000000000000   1.0000000
N2   N   0.377824447483178   0.255648894966357   0.375000000000000   1.0000000
N2   N   0.555916529932877   0.778882884645025   0.375000000000000   1.0000000
N2   N   0.890710373103994   0.779250450682523   0.375000000000000   1.0000000
N2   N   0.722966354712155   0.277416803400459   0.375000000000000   1.0000000
N2   N   0.055554216936157   0.944444408491828   0.875000000000000   1.0000000
N2   N   0.388890191555671   0.944444408491828   0.875000000000000   1.0000000
N2   N   0.222223900889152   0.444443001393252   0.875000000000000   1.0000000
N2   N   0.555540934304104   0.444437133818716   0.875000000000000   1.0000000
N2   N   0.722222397461885   0.944444794923769   0.875000000000000   1.0000000
N2   N   0.888888924841501   0.444443141777658   0.875000000000000   1.0000000
N2   N   0.054082882650813   0.444793255754806   0.375000000000000   1.0000000
N2   N   0.221117266819405   0.942234533638803   0.375000000000000   1.0000000
N2   N   0.555852176984001   0.944592755158665   0.375000000000000   1.0000000
N2   N   0.377824447483178   0.455508885850150   0.375000000000000   1.0000000
N2   N   0.888740578174663   0.944592755158665   0.375000000000000   1.0000000
N2   N   0.728712199564282   0.445588029417734   0.375000000000000   1.0000000
N2   N   0.222221949034186   0.611111384299149   0.875000000000000   1.0000000
N2   N   0.055555664849479   0.111111082932963   0.875000000000000   1.0000000
N2   N   0.555553369846719   0.611106739693445   0.875000000000000   1.0000000
N2   N   0.388890331940077   0.111114232829236   0.875000000000000   1.0000000
N2   N   0.888889435264949   0.611111384299149   0.875000000000000   1.0000000
N2   N   0.055773701546058   0.611547403092115   0.375000000000000   1.0000000
N2   N   0.722222397461885   0.111110935871451   0.875000000000000   1.0000000
N2   N   0.216875829853452   0.104621133769054   0.375000000000000   1.0000000
N2   N   0.387745303915594   0.616457503479883   0.375000000000000   1.0000000
N2   N   0.728712199564282   0.616457503479883   0.375000000000000   1.0000000
N2   N   0.555916529932877   0.110366978621181   0.375000000000000   1.0000000
N2   N   0.388890331940077   0.611109432444184   0.875000000000000   1.0000000
N2   N   0.888483974732225   0.110908654032784   0.375000000000000   1.0000000
N2   N   0.222222790648171   0.777778061990750   0.875000000000000   1.0000000
N2   N   0.055555664849479   0.277777915249851   0.875000000000000   1.0000000
N2   N   0.388896199514613   0.277792399029232   0.875000000000000   1.0000000
N2   N   0.555555418083485   0.777777668483857   0.875000000000000   1.0000000
N2   N   0.888888924841501   0.777779116397179   0.875000000000000   1.0000000
N2   N   0.722222250400372   0.277777915249851   0.875000000000000   1.0000000
N2   N   0.055773701546058   0.777559631787278   0.375000000000000   1.0000000
N2   N   0.388540077578522   0.779250450682523   0.375000000000000   1.0000000
N2   N   0.221100955674100   0.277217144503717   0.375000000000000   1.0000000
N2   N   0.722966354712155   0.778882884645025   0.375000000000000   1.0000000
N2   N   0.556116188829618   0.277217144503717   0.375000000000000   1.0000000
N2   N   0.888740578174663   0.277481156349334   0.375000000000000   1.0000000
N2   N   0.055554216936157   0.444443141777658   0.875000000000000   1.0000000
N2   N   0.222221949034186   0.944443898068380   0.875000000000000   1.0000000
N2   N   0.555556333205185   0.944444833269253   0.875000000000000   1.0000000
N2   N   0.388896199514613   0.444437133818716   0.875000000000000   1.0000000
N2   N   0.888888500064075   0.944444833269253   0.875000000000000   1.0000000
N2   N   0.054082882650813   0.942622960229335   0.375000000000000   1.0000000
N2   N   0.722219100504093   0.444443001393252   0.875000000000000   1.0000000
N2   N   0.388540077578522   0.942622960229335   0.375000000000000   1.0000000
N2   N   0.216875829853452   0.445588029417734   0.375000000000000   1.0000000
N2   N   0.221117266819405   0.612216066513931   0.375000000000000   1.0000000
N2   N   0.577684438366972   0.455508885850150   0.375000000000000   1.0000000
N2   N   0.722424679300552   0.944849358601103   0.375000000000000   1.0000000
N2   N   0.890710373103994   0.444793255754806   0.375000000000000   1.0000000
N2   N   0.055555271342586   0.611110542685165   0.875000000000000   1.0000000
N2   N   0.222223900889152   0.111114232829236   0.875000000000000   1.0000000
N2   N   0.722219100504093   0.611109432444184   0.875000000000000   1.0000000
N2   N   0.555555418083485   0.111111082932963   0.875000000000000   1.0000000
N2   N   0.888888538409560   0.111110935871451   0.875000000000000   1.0000000
B2   B   0.107643786446085   0.052343268340936   0.375000000000000   1.0000000
B2   B   0.619227406530498   0.562472873904136   0.375000000000000   1.0000000
B2   B   0.444699481894850   0.052343268340936   0.375000000000000   1.0000000
B2   B   0.945389631285206   0.555843175495726   0.375000000000000   1.0000000
B2   B   0.777777777777779   0.055555555555557   0.375000000000000   1.0000000
B2   B   0.111111111111114   0.722222222222221   0.875000000000000   1.0000000
B2   B   0.444446986007356   0.722229032714232   0.875000000000000   1.0000000
B2   B   0.277755683050013   0.222220895167885   0.875000000000000   1.0000000
B2   B   0.777782046706877   0.722229032714232   0.875000000000000   1.0000000
B2   B   0.611108715473730   0.222224617859606   0.875000000000000   1.0000000
B2   B   0.944432834732197   0.222227492370941   0.875000000000000   1.0000000
B2   B   0.277490157837610   0.722879789122816   0.375000000000000   1.0000000
B2   B   0.110124735840937   0.221729034587129   0.375000000000000   1.0000000
B2   B   0.443245467373631   0.214105926802838   0.375000000000000   1.0000000
B2   B   0.611604298746207   0.723208597492398   0.375000000000000   1.0000000
B2   B   0.945389631285206   0.722879789122816   0.375000000000000   1.0000000
B2   B   0.777973350167694   0.221778092993203   0.375000000000000   1.0000000
B2   B   0.111126226070478   0.888894465198977   0.875000000000000   1.0000000
B2   B   0.444462190505511   0.888897761919416   0.875000000000000   1.0000000
B2   B   0.277755683050013   0.388868121215456   0.875000000000000   1.0000000
B2   B   0.611112438165450   0.388868121215456   0.875000000000000   1.0000000
B2   B   0.777794657638744   0.888900498601132   0.875000000000000   1.0000000
B2   B   0.944435571413913   0.388871142827818   0.875000000000000   1.0000000
B2   B   0.107643786446085   0.388633851438478   0.375000000000000   1.0000000
B2   B   0.277490157837610   0.887943702048123   0.375000000000000   1.0000000
B2   B   0.611555240340133   0.889528590507820   0.375000000000000   1.0000000
B2   B   0.944251775149392   0.889081558183936   0.375000000000000   1.0000000
B2   B   0.780990064992400   0.388633851438478   0.375000000000000   1.0000000
B2   B   0.277766772018992   0.555566561314344   0.875000000000000   1.0000000
B2   B   0.111104300619103   0.055551286626459   0.875000000000000   1.0000000
B2   B   0.611112438165450   0.555577650283323   0.875000000000000   1.0000000
B2   B   0.444446986007356   0.055551286626459   0.875000000000000   1.0000000
B2   B   0.944438868134352   0.555565094204829   0.875000000000000   1.0000000
B2   B   0.110453544210520   0.555843175495726   0.375000000000000   1.0000000
B2   B   0.777777777777779   0.055555555555557   0.875000000000000   1.0000000
B2   B   0.276095969572789   0.052191939145577   0.375000000000000   1.0000000
B2   B   0.443245467373631   0.562472873904136   0.375000000000000   1.0000000
B2   B   0.781141394187759   0.557237363760547   0.375000000000000   1.0000000
B2   B   0.611555240340133   0.055359983165642   0.375000000000000   1.0000000
B2   B   0.444465212117873   0.555577650283323   0.875000000000000   1.0000000
B2   B   0.943804742825509   0.055359983165642   0.375000000000000   1.0000000
B2   B   0.277768239128507   0.722207107262858   0.875000000000000   1.0000000
B2   B   0.111115902385891   0.222224617859606   0.875000000000000   1.0000000
B2   B   0.444465212117873   0.222220895167885   0.875000000000000   1.0000000
B2   B   0.611108715473730   0.722217430947445   0.875000000000000   1.0000000
B2   B   0.944438868134352   0.722207107262858   0.875000000000000   1.0000000
B2   B   0.777794657638744   0.222227492370941   0.875000000000000   1.0000000
B2   B   0.111111111111114   0.722222222222221   0.375000000000000   1.0000000
B2   B   0.444699481894850   0.725689546887250   0.375000000000000   1.0000000
B2   B   0.270860459429207   0.214105926802838   0.375000000000000   1.0000000
B2   B   0.780990064992400   0.725689546887250   0.375000000000000   1.0000000
B2   B   0.611604298746207   0.221729034587129   0.375000000000000   1.0000000
B2   B   0.943804742825509   0.221778092993203   0.375000000000000   1.0000000
B2   B   0.111104300619103   0.388886347325973   0.875000000000000   1.0000000
B2   B   0.277768239128507   0.888894465198977   0.875000000000000   1.0000000
B2   B   0.611105840962395   0.888900498601132   0.875000000000000   1.0000000
B2   B   0.444444444444443   0.388888888888886   0.875000000000000   1.0000000
B2   B   0.944435571413913   0.888897761919416   0.875000000000000   1.0000000
B2   B   0.110453544210520   0.887943702048123   0.375000000000000   1.0000000
B2   B   0.777782046706877   0.388886347325973   0.875000000000000   1.0000000
B2   B   0.444829783034544   0.889081558183936   0.375000000000000   1.0000000
B2   B   0.270860459429207   0.390087865959698   0.375000000000000   1.0000000
B2   B   0.276095969572789   0.557237363760547   0.375000000000000   1.0000000
B2   B   0.619227406530498   0.390087865959698   0.375000000000000   1.0000000
B2   B   0.777973350167694   0.889528590507820   0.375000000000000   1.0000000
B2   B   0.944251775149392   0.388503550298785   0.375000000000000   1.0000000
B2   B   0.111126226070478   0.555565094204829   0.875000000000000   1.0000000
B2   B   0.277766772018992   0.055533544037991   0.875000000000000   1.0000000
B2   B   0.777799789295344   0.555566561314344   0.875000000000000   1.0000000
B2   B   0.611105840962395   0.055538675694591   0.875000000000000   1.0000000
B2   B   0.944432834732197   0.055538675694591   0.875000000000000   1.0000000
B2   B   0.055543429579558   0.111076047630766   0.124863432744267   1.0000000
B2   B   0.555592856240447   0.611185712480887   0.124921252219451   1.0000000
B2   B   0.388882180751132   0.111025485577104   0.124837355707144   1.0000000
B2   B   0.888912131253733   0.611122732293542   0.124940710862224   1.0000000
B2   B   0.722238899104521   0.111094434228814   0.124926779179780   1.0000000
B2   B   0.055572038952668   0.777761294380667   0.625048636997515   1.0000000
B2   B   0.388898008743995   0.777776257901802   0.625087973068072   1.0000000
B2   B   0.222147620852441   0.277740477092889   0.625078747780549   1.0000000
B2   B   0.722257285702570   0.777789903753778   0.625136567255733   1.0000000
B2   B   0.555592856240447   0.277740477092889   0.625078747780549   1.0000000
B2   B   0.888888794130669   0.277777588261338   0.625065667284114   1.0000000
B2   B   0.222189255427999   0.777761294380667   0.124951363002485   1.0000000
B2   B   0.055543429579558   0.277800715282135   0.124863432744267   1.0000000
B2   B   0.388776254560853   0.277552509121720   0.125872686335442   1.0000000
B2   B   0.555532618051201   0.777789903753778   0.124863432744267   1.0000000
B2   B   0.888878249157800   0.777776257901802   0.124912026931927   1.0000000
B2   B   0.722257285702570   0.277800715282135   0.124863432744267   1.0000000
B2   B   0.055557075431534   0.944455084175529   0.625087973068072   1.0000000
B2   B   0.388898008743995   0.944455084175529   0.625087973068072   1.0000000
B2   B   0.222143304825965   0.444451152582197   0.625162644292856   1.0000000
B2   B   0.555780824211615   0.444557078772476   0.624127313664558   1.0000000
B2   B   0.722238899104521   0.944477798209043   0.625073220820220   1.0000000
B2   B   0.888878249157800   0.444435324589333   0.625087973068072   1.0000000
B2   B   0.055557075431534   0.444435324589333   0.124912026931927   1.0000000
B2   B   0.222210601039794   0.944421202079595   0.124940710862224   1.0000000
B2   B   0.555555745071998   0.944444539202660   0.124934332715886   1.0000000
B2   B   0.388776254560853   0.444557078772476   0.125872686335442   1.0000000
B2   B   0.888888794130669   0.944444539202660   0.124934332715886   1.0000000
B2   B   0.722307847756232   0.444451152582197   0.124837355707144   1.0000000
B2   B   0.222210601039794   0.611122732293542   0.625059289137776   1.0000000
B2   B   0.055543429579558   0.111076047630766   0.625136567255733   1.0000000
B2   B   0.555592856240447   0.611185712480887   0.625078747780549   1.0000000
B2   B   0.388882180751132   0.111025485577104   0.625162644292856   1.0000000
B2   B   0.888912131253733   0.611122732293542   0.625059289137776   1.0000000
B2   B   0.055572038952668   0.611144077905337   0.124951363002485   1.0000000
B2   B   0.722238899104521   0.111094434228814   0.625073220820220   1.0000000
B2   B   0.222143304825965   0.111025485577104   0.124837355707144   1.0000000
B2   B   0.388882180751132   0.611190028507371   0.124837355707144   1.0000000
B2   B   0.722307847756232   0.611190028507371   0.124837355707144   1.0000000
B2   B   0.555532618051201   0.111076047630766   0.124863432744267   1.0000000
B2   B   0.388882180751132   0.611190028507371   0.625162644292856   1.0000000
B2   B   0.888855535124286   0.111094434228814   0.124926779179780   1.0000000
B2   B   0.222189255427999   0.777761294380667   0.625048636997515   1.0000000
B2   B   0.055543429579558   0.277800715282135   0.625136567255733   1.0000000
B2   B   0.388776254560853   0.277552509121720   0.624127313664558   1.0000000
B2   B   0.555532618051201   0.777789903753778   0.625136567255733   1.0000000
B2   B   0.888878249157800   0.777776257901802   0.625087973068072   1.0000000
B2   B   0.722257285702570   0.277800715282135   0.625136567255733   1.0000000
B2   B   0.055572038952668   0.777761294380667   0.124951363002485   1.0000000
B2   B   0.388898008743995   0.777776257901802   0.124912026931927   1.0000000
B2   B   0.222147620852441   0.277740477092889   0.124921252219451   1.0000000
B2   B   0.722257285702570   0.777789903753778   0.124863432744267   1.0000000
B2   B   0.555592856240447   0.277740477092889   0.124921252219451   1.0000000
B2   B   0.888888794130669   0.277777588261338   0.124934332715886   1.0000000
B2   B   0.055557075431534   0.444435324589333   0.625087973068072   1.0000000
B2   B   0.222210601039794   0.944421202079595   0.625059289137776   1.0000000
B2   B   0.555555745071998   0.944444539202660   0.625065667284114   1.0000000
B2   B   0.388776254560853   0.444557078772476   0.624127313664558   1.0000000
B2   B   0.888888794130669   0.944444539202660   0.625065667284114   1.0000000
B2   B   0.055557075431534   0.944455084175529   0.124912026931927   1.0000000
B2   B   0.722307847756232   0.444451152582197   0.625162644292856   1.0000000
B2   B   0.388898008743995   0.944455084175529   0.124912026931927   1.0000000
B2   B   0.222143304825965   0.444451152582197   0.124837355707144   1.0000000
B2   B   0.222210601039794   0.611122732293542   0.124940710862224   1.0000000
B2   B   0.555780824211615   0.444557078772476   0.125872686335442   1.0000000
B2   B   0.722238899104521   0.944477798209043   0.124926779179780   1.0000000
B2   B   0.888878249157800   0.444435324589333   0.124912026931927   1.0000000
B2   B   0.055572038952668   0.611144077905337   0.625048636997515   1.0000000
B2   B   0.222143304825965   0.111025485577104   0.625162644292856   1.0000000
B2   B   0.722307847756232   0.611190028507371   0.625162644292856   1.0000000
B2   B   0.555532618051201   0.111076047630766   0.625136567255733   1.0000000
B2   B   0.888855535124286   0.111094434228814   0.625073220820220   1.0000000


