data_1
_audit_creation_method   'vasp2cif'
_cell_length_a    17.52789999999977
_cell_length_b    17.52789999999977
_cell_length_c    15.0
_cell_angle_alpha    90.0
_cell_angle_beta    90.0
_cell_angle_gamma    119.99999999999916

_symmetry_space_group_name_H-M    'P 1'
loop_
_atom_site_label
_atom_site_type_symbol
_atom_site_fract_x
_atom_site_fract_y
_atom_site_fract_z
_atom_site_occupancy
B2   B   0.903486109893290   0.950472918890752   0.106852175691860   1.0000000
B2   B   0.903644862621902   0.093111800027612   0.108955332052333   1.0000000
B2   B   0.904064687237671   0.236112419250125   0.108937726339101   1.0000000
B2   B   0.904425339199397   0.379326081078566   0.107672351805604   1.0000000
B2   B   0.905746025895898   0.522928791107908   0.104765512933318   1.0000000
B2   B   0.906773222605555   0.666666853886403   0.102356273520617   1.0000000
B2   B   0.905870601364512   0.809787367877433   0.102077626409877   1.0000000
B2   B   0.048141538549085   0.953096248904888   0.105910258692150   1.0000000
B2   B   0.047934018555155   0.095592712054131   0.106725539702395   1.0000000
B2   B   0.047442445859191   0.237423385762801   0.107407999875255   1.0000000
B2   B   0.047023934996284   0.379829832878090   0.107298408665587   1.0000000
B2   B   0.047025775276605   0.523128830243166   0.107419967245276   1.0000000
B2   B   0.047770204163799   0.666810075369354   0.107004389314083   1.0000000
B2   B   0.048279054486322   0.810254809868120   0.105602106599232   1.0000000
B2   B   0.190964338435781   0.953598374262357   0.107738879611231   1.0000000
B2   B   0.191227996418167   0.096731599801702   0.106411355300753   1.0000000
B2   B   0.192838369532095   0.241114927936606   0.106368608001705   1.0000000
B2   B   0.190570475969836   0.381349668051584   0.105944780174391   1.0000000
B2   B   0.188652372072606   0.523675658718356   0.105660642570208   1.0000000
B2   B   0.188760996309197   0.666966255883173   0.108070277452605   1.0000000
B2   B   0.190254630654140   0.810343291213780   0.109199338890978   1.0000000
B2   B   0.333316940071808   0.953173364565281   0.109617364542235   1.0000000
B2   B   0.334019438452697   0.096665001765869   0.109521287821771   1.0000000
B2   B   0.334256736820360   0.240164970106667   0.109826196731564   1.0000000
B2   B   0.339425892286907   0.388816052864753   0.111883597606171   1.0000000
B2   B   0.330370928762817   0.525008233462908   0.106399288248686   1.0000000
B2   B   0.329359939749612   0.667509251987130   0.107183106051766   1.0000000
B2   B   0.332192865142506   0.810090530564067   0.109733943177528   1.0000000
B2   B   0.475517582940675   0.951049951314094   0.110220003633460   1.0000000
B2   B   0.476307673488628   0.094999810474777   0.110674987165306   1.0000000
B2   B   0.477002046556101   0.238868962833449   0.117807504526637   1.0000000
B2   B   0.472867516337687   0.377921801207959   0.142969112736844   1.0000000
B2   B   0.481238953331951   0.565317647178835   0.130970056195813   1.0000000
B2   B   0.467767917650093   0.659994532185224   0.116416635249574   1.0000000
B2   B   0.473852660375101   0.806462022588526   0.111991679311805   1.0000000
B2   B   0.617366581994599   0.948681865262465   0.111700455880941   1.0000000
B2   B   0.618478692724851   0.093133748177112   0.110436677797212   1.0000000
B2   B   0.619137384574221   0.236937061397277   0.113298229618510   1.0000000
B2   B   0.620111020992396   0.380555813832954   0.124467974438666   1.0000000
B2   B   0.634330902068560   0.529933498594476   0.141352125975484   1.0000000
B2   B   0.619169220019496   0.656671035392857   0.115243136725568   1.0000000
B2   B   0.614908960900649   0.802954583872731   0.113684283232904   1.0000000
B2   B   0.759598654422980   0.948356960017251   0.110329724499015   1.0000000
B2   B   0.760734303171795   0.092359986276094   0.110669597909383   1.0000000
B2   B   0.761447182612345   0.235988264331549   0.109848287245702   1.0000000
B2   B   0.762122608835405   0.379419289849012   0.109223379872785   1.0000000
B2   B   0.764966690864610   0.522938975438451   0.107099791078620   1.0000000
B2   B   0.766610687377527   0.667131414382851   0.100245759717505   1.0000000
B2   B   0.759057086461967   0.804600685843806   0.106517712995781   1.0000000
N2   N   0.952647850054186   0.904649881066944   0.105148983997756   1.0000000
N2   N   0.951788685777971   0.046192453206178   0.107695538021047   1.0000000
N2   N   0.951762239428996   0.188646311567384   0.108613388188498   1.0000000
N2   N   0.951753599068815   0.331524948576350   0.107991189953803   1.0000000
N2   N   0.952283176331291   0.474750043824085   0.106945525039519   1.0000000
N2   N   0.953247278130525   0.618499205315478   0.104466638455768   1.0000000
N2   N   0.953286321923048   0.762127372200305   0.102419850127492   1.0000000
N2   N   0.095718168125302   0.905589910138530   0.106258166981113   1.0000000
N2   N   0.095779250288022   0.048370296802594   0.106267737318233   1.0000000
N2   N   0.096445298617400   0.191412660734219   0.106530866765067   1.0000000
N2   N   0.095057192969606   0.332663251811634   0.106957163480644   1.0000000
N2   N   0.093993125740911   0.475207962692126   0.107002741486412   1.0000000
N2   N   0.094191467789131   0.618592550349231   0.108018237258300   1.0000000
N2   N   0.095287056088267   0.762277387941982   0.107947546598411   1.0000000
N2   N   0.238126179044355   0.905625671756340   0.109214550457104   1.0000000
N2   N   0.238697756190189   0.048943783061455   0.107598021405786   1.0000000
N2   N   0.239131342350386   0.192232866669944   0.105903114353682   1.0000000
N2   N   0.241902040354251   0.337598018444821   0.106883899696156   1.0000000
N2   N   0.236150870094324   0.476206850205393   0.104585369461041   1.0000000
N2   N   0.235090517026435   0.618939227930287   0.106126614151289   1.0000000
N2   N   0.237148675903814   0.762322089421319   0.109500574815309   1.0000000
N2   N   0.380420225178918   0.904987886990057   0.109939921095417   1.0000000
N2   N   0.381137107322440   0.048322542566498   0.109807731883293   1.0000000
N2   N   0.381715262686500   0.191989537694553   0.111964752112511   1.0000000
N2   N   0.382019445904630   0.335744756538226   0.116372970038389   1.0000000
N2   N   0.387119331633252   0.487344958057696   0.110692098941576   1.0000000
N2   N   0.375079808710552   0.619674535275461   0.107482869572062   1.0000000
N2   N   0.379002259411110   0.761990976045273   0.109624570507850   1.0000000
N2   N   0.522289179353970   0.901954579874744   0.111454388811341   1.0000000
N2   N   0.523357450398422   0.046339144933021   0.109742961943060   1.0000000
N2   N   0.524018008182443   0.190224411516007   0.113534104866072   1.0000000
N2   N   0.524232080060655   0.333630177998380   0.130277175739495   1.0000000
N2   N   0.519580852951465   0.755669618432389   0.115167952077072   1.0000000
N2   N   0.663782787599527   0.899068591503924   0.111950378554015   1.0000000
N2   N   0.665422999825813   0.044369050916723   0.111086420925301   1.0000000
N2   N   0.666257214479827   0.188551100513044   0.110601753657737   1.0000000
N2   N   0.666877912296789   0.332237266352639   0.115029708558976   1.0000000
N2   N   0.671585951008744   0.475934718156312   0.121680012786962   1.0000000
N2   N   0.672911787243763   0.618549150554348   0.106919463799594   1.0000000
N2   N   0.660662371168634   0.752314925602418   0.112054470254647   1.0000000
N2   N   0.806960841797678   0.900596851903679   0.108088754513208   1.0000000
N2   N   0.807886803894502   0.044158929620189   0.110264474949085   1.0000000
N2   N   0.808677494488444   0.187879393605001   0.109997836258750   1.0000000
N2   N   0.809244373760603   0.331358105878540   0.108488295296179   1.0000000
N2   N   0.811036800517601   0.474675025638738   0.104492423554930   1.0000000
N2   N   0.812472045152050   0.618494524960517   0.101680346850678   1.0000000
N2   N   0.810569722369213   0.761472329755437   0.099958748782518   1.0000000
Ge2   Ge   0.526031089338495   0.497102522749289   0.210802398499020   1.0000000


