data_1
_audit_creation_method   'vasp2cif'
_cell_length_a    14.93631414619966
_cell_length_b    14.936314146199727
_cell_length_c    13.341276283792837
_cell_angle_alpha    90.0
_cell_angle_beta    90.0
_cell_angle_gamma    119.99999999999984

_symmetry_space_group_name_H-M    'P 1'
loop_
_atom_site_label
_atom_site_type_symbol
_atom_site_fract_x
_atom_site_fract_y
_atom_site_fract_z
_atom_site_occupancy
In2   In   0.555555555555557   0.444444444444443   0.375000000000000   1.0000000
N2   N   0.111107798569174   0.055544965601935   0.125416480114657   1.0000000
N2   N   0.611148785339227   0.555630904011729   0.122740462801416   1.0000000
N2   N   0.444438039507822   0.055550038704611   0.125760202630979   1.0000000
N2   N   0.944449961295427   0.555561960492151   0.125760202630979   1.0000000
N2   N   0.777774740333778   0.055554036833534   0.125044500618920   1.0000000
N2   N   0.111115126491205   0.722224229912290   0.624803315655713   1.0000000
N2   N   0.444438039507824   0.722221334136519   0.624239797368951   1.0000000
N2   N   0.277759064276929   0.222210667335086   0.624530899270179   1.0000000
N2   N   0.777789332664884   0.722240935723098   0.624530899270179   1.0000000
N2   N   0.611118269724824   0.222210667335083   0.624530899270179   1.0000000
N2   N   0.944445963166421   0.222225259666255   0.624955499381115   1.0000000
N2   N   0.277775770087761   0.722224229912290   0.125196684344312   1.0000000
N2   N   0.111095586798834   0.222214460066087   0.125315903206772   1.0000000
N2   N   0.444451043847750   0.222235421028775   0.125342886370537   1.0000000
N2   N   0.611118269724824   0.722240935723098   0.125469100729806   1.0000000
N2   N   0.944449961295427   0.722221334136519   0.125760202630979   1.0000000
N2   N   0.777785539933938   0.222214460066087   0.125315903206772   1.0000000
N2   N   0.111115550292286   0.888884449707714   0.624715639865625   1.0000000
N2   N   0.444435566082081   0.888884449707714   0.624715639865625   1.0000000
N2   N   0.277759064276929   0.388881730275137   0.624530899270179   1.0000000
N2   N   0.611148785339227   0.388851214660800   0.627259537198636   1.0000000
N2   N   0.777785539933938   0.888904413201254   0.624684096793146   1.0000000
N2   N   0.944455034398037   0.388896166300553   0.624583519885379   1.0000000
N2   N   0.111107798569173   0.388896166300553   0.125416480114649   1.0000000
N2   N   0.277775770087761   0.888884873508850   0.125196684344312   1.0000000
N2   N   0.611103833699498   0.888892201430887   0.125416480114657   1.0000000
N2   N   0.444369095988278   0.388851214660800   0.122740462801415   1.0000000
N2   N   0.944455034398036   0.888892201430887   0.125416480114657   1.0000000
N2   N   0.777789332664884   0.388881730275137   0.125469100729806   1.0000000
N2   N   0.277778665863434   0.555561960492151   0.624239797368951   1.0000000
N2   N   0.111107798569173   0.055544965601935   0.624583519885379   1.0000000
N2   N   0.611148785339227   0.555630904011728   0.627259537198636   1.0000000
N2   N   0.444438039507827   0.055550038704611   0.624239797368951   1.0000000
N2   N   0.944449961295427   0.555561960492151   0.624239797368951   1.0000000
N2   N   0.111115550292286   0.555564433917942   0.125284360134340   1.0000000
N2   N   0.777774740333778   0.055554036833533   0.624955499381115   1.0000000
N2   N   0.277778665863434   0.055550038704611   0.125760202630979   1.0000000
N2   N   0.444451043847750   0.555548956152280   0.125342886370537   1.0000000
N2   N   0.777764578971165   0.555548956152280   0.125342886370537   1.0000000
N2   N   0.611103833699498   0.055544965601935   0.125416480114657   1.0000000
N2   N   0.444451043847750   0.555548956152280   0.624657113629389   1.0000000
N2   N   0.944445963166421   0.055554036833534   0.125044500618920   1.0000000
N2   N   0.277775770087761   0.722224229912290   0.624803315655713   1.0000000
N2   N   0.111095586798834   0.222214460066087   0.624684096793146   1.0000000
N2   N   0.444451043847750   0.222235421028775   0.624657113629389   1.0000000
N2   N   0.611118269724824   0.722240935723098   0.624530899270179   1.0000000
N2   N   0.944449961295427   0.722221334136519   0.624239797368951   1.0000000
N2   N   0.777785539933938   0.222214460066087   0.624684096793146   1.0000000
N2   N   0.111115126491205   0.722224229912290   0.125196684344312   1.0000000
N2   N   0.444438039507824   0.722221334136519   0.125760202630979   1.0000000
N2   N   0.277759064276929   0.222210667335086   0.125469100729806   1.0000000
N2   N   0.777789332664884   0.722240935723098   0.125469100729806   1.0000000
N2   N   0.611118269724824   0.222210667335083   0.125469100729806   1.0000000
N2   N   0.944445963166421   0.222225259666255   0.125044500618920   1.0000000
N2   N   0.111107798569173   0.388896166300553   0.624583519885379   1.0000000
N2   N   0.277775770087762   0.888884873508850   0.624803315655713   1.0000000
N2   N   0.611103833699498   0.888892201430887   0.624583519885379   1.0000000
N2   N   0.444369095988278   0.388851214660801   0.627259537198636   1.0000000
N2   N   0.944455034398037   0.888892201430887   0.624583519885379   1.0000000
N2   N   0.111115550292286   0.888884449707714   0.125284360134340   1.0000000
N2   N   0.777789332664884   0.388881730275137   0.624530899270179   1.0000000
N2   N   0.444435566082081   0.888884449707714   0.125284360134340   1.0000000
N2   N   0.277759064276929   0.388881730275137   0.125469100729806   1.0000000
N2   N   0.277778665863434   0.555561960492151   0.125760202630979   1.0000000
N2   N   0.611148785339227   0.388851214660800   0.122740462801415   1.0000000
N2   N   0.777785539933938   0.888904413201254   0.125315903206772   1.0000000
N2   N   0.944455034398037   0.388896166300553   0.125416480114657   1.0000000
N2   N   0.111115550292286   0.555564433917942   0.624715639865625   1.0000000
N2   N   0.277778665863434   0.055550038704611   0.624239797368951   1.0000000
N2   N   0.777764578971165   0.555548956152280   0.624657113629389   1.0000000
N2   N   0.611103833699498   0.055544965601935   0.624583519885379   1.0000000
N2   N   0.944445963166421   0.055554036833534   0.624955499381114   1.0000000
N2   N   0.054245162163695   0.110266252182291   0.375000000000000   1.0000000
N2   N   0.554854013779544   0.622068411850312   0.375000000000000   1.0000000
N2   N   0.387140792249869   0.107614917833130   0.375000000000000   1.0000000
N2   N   0.892385082166919   0.612859207750013   0.375000000000000   1.0000000
N2   N   0.722687756685330   0.110266252182291   0.375000000000000   1.0000000
N2   N   0.055542516238070   0.777776561477905   0.875000000000000   1.0000000
N2   N   0.388900711906539   0.777776561477905   0.875000000000000   1.0000000
N2   N   0.222230847016484   0.277782090174904   0.875000000000000   1.0000000
N2   N   0.722217909825022   0.777769152983529   0.875000000000000   1.0000000
N2   N   0.555550964306569   0.277774065005361   0.875000000000000   1.0000000
N2   N   0.888885973433227   0.277779034359062   0.875000000000000   1.0000000
N2   N   0.222222222222221   0.777777777777779   0.375000000000000   1.0000000
N2   N   0.054245162163695   0.277312243314705   0.375000000000000   1.0000000
N2   N   0.377931588149703   0.266118935262563   0.375000000000000   1.0000000
N2   N   0.554943063299574   0.782342810600783   0.375000000000000   1.0000000
N2   N   0.894066413967827   0.782342810600778   0.375000000000000   1.0000000
N2   N   0.724265834224993   0.275734165775029   0.375000000000000   1.0000000
N2   N   0.055551736705117   0.944448263294866   0.875000000000000   1.0000000
N2   N   0.388900711906539   0.944457483761871   0.875000000000000   1.0000000
N2   N   0.222228366721882   0.444441084619293   0.875000000000000   1.0000000
N2   N   0.555555555555557   0.444444444444443   0.875000000000000   1.0000000
N2   N   0.722220965640971   0.944440272407481   0.875000000000000   1.0000000
N2   N   0.888879384564091   0.444441084619293   0.875000000000000   1.0000000
N2   N   0.055784586750610   0.444902506834573   0.375000000000000   1.0000000
N2   N   0.221676758806607   0.943082380089041   0.375000000000000   1.0000000
N2   N   0.555097493165433   0.944215413249404   0.375000000000000   1.0000000
N2   N   0.377931588149703   0.445145986220424   0.375000000000000   1.0000000
N2   N   0.889733747817697   0.945754837836249   0.375000000000000   1.0000000
N2   N   0.733881064737417   0.445145986220423   0.375000000000000   1.0000000
N2   N   0.222223438522077   0.611099288093496   0.875000000000000   1.0000000
N2   N   0.055559727592486   0.111114026566779   0.875000000000000   1.0000000
N2   N   0.555550964306569   0.611110232634516   0.875000000000000   1.0000000
N2   N   0.388893897462172   0.111121128257724   0.875000000000000   1.0000000
N2   N   0.888878871742313   0.611106102537802   0.875000000000000   1.0000000
N2   N   0.056917619910974   0.611927712050903   0.375000000000000   1.0000000
N2   N   0.722220965640971   0.111114026566779   0.875000000000000   1.0000000
N2   N   0.217657189399233   0.105933586032203   0.375000000000000   1.0000000
N2   N   0.387140792249871   0.612859207750017   0.375000000000000   1.0000000
N2   N   0.733881064737416   0.622068411850321   0.375000000000000   1.0000000
N2   N   0.554943063299578   0.105933586032203   0.375000000000000   1.0000000
N2   N   0.388893897462172   0.611106102537802   0.875000000000000   1.0000000
N2   N   0.888888888888886   0.111111111111114   0.375000000000000   1.0000000
N2   N   0.222222222222221   0.777777777777779   0.875000000000000   1.0000000
N2   N   0.055559727592486   0.277779034359062   0.875000000000000   1.0000000
N2   N   0.388889767365440   0.277774065005361   0.875000000000000   1.0000000
N2   N   0.555558915380658   0.777771633278114   0.875000000000000   1.0000000
N2   N   0.888879384564091   0.777771633278114   0.875000000000000   1.0000000
N2   N   0.722217909825022   0.277782090174904   0.875000000000000   1.0000000
N2   N   0.056917619910974   0.778323241193388   0.375000000000000   1.0000000
N2   N   0.388072287949107   0.778323241193388   0.375000000000000   1.0000000
N2   N   0.218134998216747   0.275734165775029   0.375000000000000   1.0000000
N2   N   0.724265834224992   0.781865001783278   0.375000000000000   1.0000000
N2   N   0.554854013779543   0.266118935262564   0.375000000000000   1.0000000
N2   N   0.889733747817697   0.277312243314705   0.375000000000000   1.0000000
N2   N   0.055551736705117   0.444436806743581   0.875000000000000   1.0000000
N2   N   0.222223438522077   0.944457483761871   0.875000000000000   1.0000000
N2   N   0.555563193256471   0.944448263294866   0.875000000000000   1.0000000
N2   N   0.388889767365440   0.444449035693459   0.875000000000000   1.0000000
N2   N   0.888885973433227   0.944440272407481   0.875000000000000   1.0000000
N2   N   0.055784586750610   0.944215413249405   0.375000000000000   1.0000000
N2   N   0.722225934994643   0.444449035693459   0.875000000000000   1.0000000
N2   N   0.388072287949106   0.943082380089041   0.375000000000000   1.0000000
N2   N   0.217657189399235   0.445056936700377   0.375000000000000   1.0000000
N2   N   0.221676758806610   0.611927712050903   0.375000000000000   1.0000000
N2   N   0.722687756685325   0.945754837836249   0.375000000000000   1.0000000
N2   N   0.894066413967825   0.445056936700379   0.375000000000000   1.0000000
N2   N   0.055542516238070   0.611099288093496   0.875000000000000   1.0000000
N2   N   0.222228366721882   0.111120615435952   0.875000000000000   1.0000000
N2   N   0.722225934994643   0.611110232634516   0.875000000000000   1.0000000
N2   N   0.555558915380658   0.111120615435952   0.875000000000000   1.0000000
N2   N   0.888888888888886   0.111111111111114   0.875000000000000   1.0000000
B2   B   0.108198647260613   0.053396864217078   0.375000000000000   1.0000000
B2   B   0.630308561786039   0.593950456905382   0.375000000000000   1.0000000
B2   B   0.443707964092803   0.052784915448538   0.375000000000000   1.0000000
B2   B   0.947215084551405   0.556292035907159   0.375000000000000   1.0000000
B2   B   0.778498519578962   0.055915926456148   0.375000000000000   1.0000000
B2   B   0.111116902190903   0.722225117762115   0.875000000000000   1.0000000
B2   B   0.444444422988362   0.722239415634566   0.875000000000000   1.0000000
B2   B   0.277755480148612   0.222205210640418   0.875000000000000   1.0000000
B2   B   0.777794789359603   0.722244519851493   0.875000000000000   1.0000000
B2   B   0.611116397158530   0.222205210640417   0.875000000000000   1.0000000
B2   B   0.944439315366171   0.222211964065566   0.875000000000000   1.0000000
B2   B   0.277361490401406   0.722638509598614   0.375000000000000   1.0000000
B2   B   0.107874315180001   0.220603824256683   0.375000000000000   1.0000000
B2   B   0.441646686117128   0.216626705567563   0.375000000000000   1.0000000
B2   B   0.612598680383810   0.731978261054361   0.375000000000000   1.0000000
B2   B   0.947215084551405   0.724256381977620   0.375000000000000   1.0000000
B2   B   0.779396175743379   0.220603824256684   0.375000000000000   1.0000000
B2   B   0.111107366899960   0.888892633100047   0.875000000000000   1.0000000
B2   B   0.444451932866731   0.888892633100048   0.875000000000000   1.0000000
B2   B   0.277755480148612   0.388883602841543   0.875000000000000   1.0000000
B2   B   0.611113183570494   0.388886816429549   0.875000000000000   1.0000000
B2   B   0.777790112963583   0.888913559260510   0.875000000000000   1.0000000
B2   B   0.944448172187239   0.388873606739859   0.875000000000000   1.0000000
B2   B   0.108198647260613   0.388135116376904   0.375000000000000   1.0000000
B2   B   0.277361490401406   0.888056314136134   0.375000000000000   1.0000000
B2   B   0.611864883623116   0.891801352739308   0.375000000000000   1.0000000
B2   B   0.406049543094554   0.369691438213971   0.375000000000000   1.0000000
B2   B   0.946603135782830   0.891801352739308   0.375000000000000   1.0000000
B2   B   0.786046247337303   0.387401319616188   0.375000000000000   1.0000000
B2   B   0.277760584365510   0.555555577011613   0.875000000000000   1.0000000
B2   B   0.111092101219360   0.055551827812832   0.875000000000000   1.0000000
B2   B   0.611113183570494   0.555559700474230   0.875000000000000   1.0000000
B2   B   0.444444422988362   0.055538340687165   0.875000000000000   1.0000000
B2   B   0.944461659312757   0.555555577011613   0.875000000000000   1.0000000
B2   B   0.111268233413283   0.555869800159891   0.375000000000000   1.0000000
B2   B   0.777788035934408   0.055560684633889   0.875000000000000   1.0000000
B2   B   0.275743618022418   0.052784915448538   0.375000000000000   1.0000000
B2   B   0.441646686117132   0.558353313882961   0.375000000000000   1.0000000
B2   B   0.783373294432406   0.558353313882962   0.375000000000000   1.0000000
B2   B   0.611864883623116   0.053396864217077   0.375000000000000   1.0000000
B2   B   0.444435558160990   0.555564441838948   0.875000000000000   1.0000000
B2   B   0.944084073543845   0.055915926456148   0.375000000000000   1.0000000
B2   B   0.277774882237855   0.722225117762115   0.875000000000000   1.0000000
B2   B   0.111086440739489   0.222209887036401   0.875000000000000   1.0000000
B2   B   0.444435558160990   0.222204449655329   0.875000000000000   1.0000000
B2   B   0.611116397158530   0.722244519851493   0.875000000000000   1.0000000
B2   B   0.944461659312758   0.722239415634565   0.875000000000000   1.0000000
B2   B   0.777790112963581   0.222209887036401   0.875000000000000   1.0000000
B2   B   0.111943685863845   0.722638509598614   0.375000000000000   1.0000000
B2   B   0.443707964092804   0.724256381977620   0.375000000000000   1.0000000
B2   B   0.268021738945619   0.213953752662707   0.375000000000000   1.0000000
B2   B   0.786046247337302   0.731978261054361   0.375000000000000   1.0000000
B2   B   0.612598680383811   0.213953752662707   0.375000000000000   1.0000000
B2   B   0.944084073543845   0.221501480421049   0.375000000000000   1.0000000
B2   B   0.111092101219361   0.388873606739858   0.875000000000000   1.0000000
B2   B   0.277774882237855   0.888883097809039   0.875000000000000   1.0000000
B2   B   0.611126393260098   0.888907898780543   0.875000000000000   1.0000000
B2   B   0.444440299525759   0.388886816429549   0.875000000000000   1.0000000
B2   B   0.944448172187239   0.888907898780543   0.875000000000000   1.0000000
B2   B   0.111268233413283   0.888731766586670   0.375000000000000   1.0000000
B2   B   0.777794789359603   0.388883602841543   0.875000000000000   1.0000000
B2   B   0.444130199840137   0.888731766586670   0.375000000000000   1.0000000
B2   B   0.268021738945619   0.387401319616187   0.375000000000000   1.0000000
B2   B   0.275743618022420   0.556292035907158   0.375000000000000   1.0000000
B2   B   0.630308561786042   0.369691438213978   0.375000000000000   1.0000000
B2   B   0.779396175743379   0.892125684819976   0.375000000000000   1.0000000
B2   B   0.946603135782829   0.388135116376904   0.375000000000000   1.0000000
B2   B   0.111107366899960   0.555548067133258   0.875000000000000   1.0000000
B2   B   0.277760584365510   0.055538340687165   0.875000000000000   1.0000000
B2   B   0.777795550344684   0.555564441838948   0.875000000000000   1.0000000
B2   B   0.611126393260098   0.055551827812832   0.875000000000000   1.0000000
B2   B   0.944439315366171   0.055560684633889   0.875000000000000   1.0000000
B2   B   0.055513378607531   0.111081546478221   0.125009301460738   1.0000000
B2   B   0.555563299032496   0.611198467018970   0.123932544833137   1.0000000
B2   B   0.388838531926822   0.111010397186973   0.125408649416606   1.0000000
B2   B   0.888989602813008   0.611161468073174   0.125408649416605   1.0000000
B2   B   0.722234834537379   0.111081546478221   0.125009301460738   1.0000000
B2   B   0.055610179508154   0.777797413264410   0.624858381355221   1.0000000
B2   B   0.388853900422939   0.777797413264410   0.624858381355221   1.0000000
B2   B   0.222109765435445   0.277721549384381   0.624982586704315   1.0000000
B2   B   0.722278450615522   0.777890234564573   0.624982586704315   1.0000000
B2   B   0.555563299032496   0.277698165346857   0.626067455166836   1.0000000
B2   B   0.888918453521771   0.277765165462651   0.624990698539262   1.0000000
B2   B   0.222222222222221   0.777777777777779   0.124892268079902   1.0000000
B2   B   0.055513378607531   0.277765165462651   0.125009301460738   1.0000000
B2   B   0.388801532980976   0.277698165346857   0.123932544833137   1.0000000
B2   B   0.555539064676559   0.777851222482600   0.125293837277740   1.0000000
B2   B   0.888978824472629   0.777851222482600   0.125293837277740   1.0000000
B2   B   0.722278450615522   0.277721549384381   0.125017413295688   1.0000000
B2   B   0.055566057373824   0.944433942626182   0.624883671048769   1.0000000
B2   B   0.388853900422939   0.944389820491807   0.624858381355221   1.0000000
B2   B   0.222148777517425   0.444460935323386   0.624706162722231   1.0000000
B2   B   0.555555555555557   0.444444444444443   0.627636776675840   1.0000000
B2   B   0.722234834537379   0.944486621392487   0.624990698539262   1.0000000
B2   B   0.888978824472629   0.444460935323386   0.624706162722231   1.0000000
B2   B   0.055566057373824   0.444465448080991   0.125116328951216   1.0000000
B2   B   0.222202586735593   0.944389820491807   0.125141618644764   1.0000000
B2   B   0.555534551919085   0.944433942626182   0.125116328951216   1.0000000
B2   B   0.388801532980976   0.444436700967487   0.123932544833136   1.0000000
B2   B   0.888918453521771   0.944486621392487   0.125009301460738   1.0000000
B2   B   0.722301834653229   0.444436700967487   0.123932544833137   1.0000000
B2   B   0.222202586735593   0.611146099577048   0.624858381355221   1.0000000
B2   B   0.055513378607531   0.111081546478221   0.624990698539262   1.0000000
B2   B   0.555563299032496   0.611198467018970   0.626067455166836   1.0000000
B2   B   0.388838531926822   0.111010397186974   0.624591350583417   1.0000000
B2   B   0.888989602813008   0.611161468073174   0.624591350583417   1.0000000
B2   B   0.055610179508154   0.611146099577048   0.125141618644764   1.0000000
B2   B   0.722234834537379   0.111081546478221   0.624990698539262   1.0000000
B2   B   0.222148777517426   0.111021175527344   0.125293837277740   1.0000000
B2   B   0.388838531926822   0.611161468073174   0.125408649416605   1.0000000
B2   B   0.722301834653229   0.611198467018970   0.123932544833136   1.0000000
B2   B   0.555539064676559   0.111021175527344   0.125293837277740   1.0000000
B2   B   0.388838531926822   0.611161468073175   0.624591350583417   1.0000000
B2   B   0.888888888888886   0.111111111111114   0.124810501388456   1.0000000
B2   B   0.222222222222221   0.777777777777779   0.625107731920148   1.0000000
B2   B   0.055513378607531   0.277765165462651   0.624990698539262   1.0000000
B2   B   0.388801532980976   0.277698165346857   0.626067455166836   1.0000000
B2   B   0.555539064676559   0.777851222482600   0.624706162722231   1.0000000
B2   B   0.888978824472629   0.777851222482600   0.624706162722231   1.0000000
B2   B   0.722278450615522   0.277721549384381   0.624982586704315   1.0000000
B2   B   0.055610179508154   0.777797413264410   0.125141618644764   1.0000000
B2   B   0.388853900422939   0.777797413264410   0.125141618644764   1.0000000
B2   B   0.222109765435445   0.277721549384381   0.125017413295688   1.0000000
B2   B   0.722278450615522   0.777890234564573   0.125017413295688   1.0000000
B2   B   0.555563299032496   0.277698165346857   0.123932544833137   1.0000000
B2   B   0.888918453521771   0.277765165462651   0.125009301460738   1.0000000
B2   B   0.055566057373824   0.444465448080991   0.624883671048769   1.0000000
B2   B   0.222202586735593   0.944389820491807   0.624858381355221   1.0000000
B2   B   0.555534551919085   0.944433942626181   0.624883671048769   1.0000000
B2   B   0.388801532980976   0.444436700967488   0.626067455166836   1.0000000
B2   B   0.888918453521771   0.944486621392487   0.624990698539262   1.0000000
B2   B   0.055566057373823   0.944433942626182   0.125116328951216   1.0000000
B2   B   0.722301834653231   0.444436700967487   0.626067455166836   1.0000000
B2   B   0.388853900422939   0.944389820491807   0.125141618644764   1.0000000
B2   B   0.222148777517426   0.444460935323385   0.125293837277740   1.0000000
B2   B   0.222202586735593   0.611146099577048   0.125141618644764   1.0000000
B2   B   0.555555555555557   0.444444444444443   0.122363223324118   1.0000000
B2   B   0.722234834537379   0.944486621392487   0.125009301460738   1.0000000
B2   B   0.888978824472624   0.444460935323386   0.125293837277740   1.0000000
B2   B   0.055610179508154   0.611146099577048   0.624858381355221   1.0000000
B2   B   0.222148777517426   0.111021175527344   0.624706162722231   1.0000000
B2   B   0.722301834653231   0.611198467018970   0.626067455166836   1.0000000
B2   B   0.555539064676559   0.111021175527344   0.624706162722231   1.0000000
B2   B   0.888888888888886   0.111111111111114   0.625189498611495   1.0000000


