data_1
_audit_creation_method   'vasp2cif'
_cell_length_a    17.52789999999977
_cell_length_b    17.52789999999977
_cell_length_c    15.0
_cell_angle_alpha    90.0
_cell_angle_beta    90.0
_cell_angle_gamma    119.99999999999916

_symmetry_space_group_name_H-M    'P 1'
loop_
_atom_site_label
_atom_site_type_symbol
_atom_site_fract_x
_atom_site_fract_y
_atom_site_fract_z
_atom_site_occupancy
B2   B   0.909945883095282   0.954674649168845   0.110640137721612   1.0000000
B2   B   0.908757788953611   0.095989489867230   0.110790047881258   1.0000000
B2   B   0.908416673602903   0.237888887010576   0.110748679728243   1.0000000
B2   B   0.908667193111484   0.380407995202931   0.110640457149542   1.0000000
B2   B   0.909017351293230   0.523467559958629   0.110740394780526   1.0000000
B2   B   0.909319800528082   0.666587838211775   0.110796938909032   1.0000000
B2   B   0.906735733886271   0.809013347314680   0.110716631839826   1.0000000
B2   B   0.051037525492248   0.953807505434128   0.110707577798764   1.0000000
B2   B   0.052213704199661   0.096978556677593   0.110791013321014   1.0000000
B2   B   0.051127242633919   0.238528738370165   0.110872061436987   1.0000000
B2   B   0.050142686999022   0.381196685435390   0.110708396870598   1.0000000
B2   B   0.049480779560400   0.524624370330971   0.110669807519483   1.0000000
B2   B   0.050107560103182   0.668040955546918   0.110766362116383   1.0000000
B2   B   0.050198201262250   0.810986050639311   0.110763617149545   1.0000000
B2   B   0.193544800521522   0.954717206118869   0.110734344873594   1.0000000
B2   B   0.195283856868531   0.098189501469692   0.110747768807447   1.0000000
B2   B   0.194715944321149   0.239728324023110   0.110815955367001   1.0000000
B2   B   0.192028455639633   0.381472790477421   0.110724889399522   1.0000000
B2   B   0.189307583465317   0.525242095495735   0.110668679831586   1.0000000
B2   B   0.190291653276703   0.668948862551734   0.110728455059293   1.0000000
B2   B   0.192314837905381   0.811864355933891   0.110742437769007   1.0000000
B2   B   0.335660798455175   0.954708364538174   0.110719160354313   1.0000000
B2   B   0.337179010625343   0.097906782302114   0.110785103545805   1.0000000
B2   B   0.340324690933216   0.243130298933995   0.110755915834610   1.0000000
B2   B   0.336167936078008   0.380971123020648   0.110667305778836   1.0000000
B2   B   0.327758011426986   0.527239741445597   0.110621551919981   1.0000000
B2   B   0.329466855176952   0.670267348020322   0.110719550495880   1.0000000
B2   B   0.334206831062625   0.812387518286574   0.110789676085114   1.0000000
B2   B   0.478023314218432   0.953484231162917   0.110732056385767   1.0000000
B2   B   0.479185616054909   0.095645726474021   0.110751644707726   1.0000000
B2   B   0.481053467863996   0.238259772317968   0.110834482068200   1.0000000
B2   B   0.487819935150271   0.383390065159164   0.110942301736990   1.0000000
B2   B   0.466643684271908   0.667859182361289   0.110691902447989   1.0000000
B2   B   0.476688468121611   0.811202890331812   0.110777807347133   1.0000000
B2   B   0.621192249048766   0.954553856683383   0.110738674628464   1.0000000
B2   B   0.621934641354966   0.094877310364408   0.110677233313880   1.0000000
B2   B   0.623149104596987   0.235275338596615   0.110736911478958   1.0000000
B2   B   0.625355291749627   0.374288688287276   0.110915038310261   1.0000000
B2   B   0.624835644916182   0.509793027633922   0.110777527227032   1.0000000
B2   B   0.621553802121558   0.815168019268110   0.110741416635058   1.0000000
B2   B   0.765647768756220   0.954159775616193   0.110669833924189   1.0000000
B2   B   0.765299575667705   0.095396034514174   0.110704078499722   1.0000000
B2   B   0.765843327631938   0.236885780082813   0.110645138214926   1.0000000
B2   B   0.767094632836270   0.378544444409980   0.110703108525399   1.0000000
B2   B   0.768099282185018   0.520725162757737   0.110851264384358   1.0000000
B2   B   0.766617651039034   0.661793739305451   0.110730648904188   1.0000000
B2   B   0.768289026470302   0.814023022965359   0.110677876006842   1.0000000
Ga2   Ga   0.618176968450672   0.661561943014195   0.111002161381794   1.0000000
N2   N   0.955346617044376   0.905080180526373   0.110659206434119   1.0000000
N2   N   0.957247102367413   0.049448512897030   0.110729851643832   1.0000000
N2   N   0.956423275807632   0.190946619651469   0.110830881862895   1.0000000
N2   N   0.955965877909358   0.332978062557905   0.110676369014452   1.0000000
N2   N   0.955567094055223   0.475693389224174   0.110658709590816   1.0000000
N2   N   0.955883614750590   0.618905678865061   0.110781554925341   1.0000000
N2   N   0.954881561282728   0.762076528575297   0.110759979566798   1.0000000
N2   N   0.098321344077811   0.906377537273983   0.110711296320949   1.0000000
N2   N   0.099739199508687   0.049729268867329   0.110714405543391   1.0000000
N2   N   0.099958243680736   0.192314979195220   0.110858080736315   1.0000000
N2   N   0.098260104914927   0.333874513031949   0.110781801245041   1.0000000
N2   N   0.096103651018126   0.476464069417179   0.110643769580205   1.0000000
N2   N   0.096465366031270   0.619942512359900   0.110697601515821   1.0000000
N2   N   0.097441376480455   0.763342106530005   0.110749850257763   1.0000000
N2   N   0.240614025988935   0.906945478952093   0.110706888053358   1.0000000
N2   N   0.242034679101100   0.050263773121911   0.110727760609804   1.0000000
N2   N   0.244366027030968   0.194708057620413   0.110748142637537   1.0000000
N2   N   0.242348592379783   0.335807044082433   0.110744259890423   1.0000000
N2   N   0.236182911183762   0.476878949758721   0.110645104402118   1.0000000
N2   N   0.236331912622571   0.620476764281701   0.110692492457852   1.0000000
N2   N   0.239336241134050   0.763951286781609   0.110744357203566   1.0000000
N2   N   0.382883127464382   0.906831268723597   0.110725219285861   1.0000000
N2   N   0.384036034941166   0.049657428698251   0.110733285147191   1.0000000
N2   N   0.385860207518056   0.193663152581546   0.110799789241188   1.0000000
N2   N   0.390407288004956   0.341712370287030   0.110691827543381   1.0000000
N2   N   0.376902285382663   0.479697918703169   0.110575497317354   1.0000000
N2   N   0.374457578254396   0.620980755099115   0.110637067241836   1.0000000
N2   N   0.381281077125712   0.764279029599237   0.110775469916780   1.0000000
N2   N   0.525498016940945   0.905623895228175   0.110748887283701   1.0000000
N2   N   0.526571982789433   0.047995701659431   0.110682059384499   1.0000000
N2   N   0.527883942394024   0.190267029755208   0.110787668848755   1.0000000
N2   N   0.531376489695552   0.333164528549238   0.110839435683375   1.0000000
N2   N   0.461212469105041   0.523005176366645   0.110628963006768   1.0000000
N2   N   0.499933881495706   0.606967522724066   0.110664044339992   1.0000000
N2   N   0.523656682796719   0.761736932519910   0.110733597094240   1.0000000
N2   N   0.669308186890644   0.908453493692567   0.110678745942317   1.0000000
N2   N   0.669830981816977   0.048355581340443   0.110692537583924   1.0000000
N2   N   0.670714587313267   0.188860441319787   0.110646158590022   1.0000000
N2   N   0.672611227105672   0.328877353976462   0.110775437231190   1.0000000
N2   N   0.673080743422198   0.467173726716572   0.110934700223135   1.0000000
N2   N   0.672378518875921   0.601915980350141   0.110696445513537   1.0000000
N2   N   0.674890415838587   0.776114417436380   0.110786328388801   1.0000000
N2   N   0.815212463951931   0.908125769223189   0.110586438252676   1.0000000
N2   N   0.813429914216547   0.048556861827352   0.110716633543605   1.0000000
N2   N   0.813532994917192   0.189997349552419   0.110691210380070   1.0000000
N2   N   0.814255208669817   0.331729437303324   0.110603517897040   1.0000000
N2   N   0.814701282403941   0.473832386850219   0.110733146255284   1.0000000
N2   N   0.814974079374262   0.616389108877864   0.110773741403339   1.0000000
N2   N   0.810027651850330   0.759377113483121   0.110673888702017   1.0000000


