data_1
_audit_creation_method   'vasp2cif'
_cell_length_a    14.93631414619966
_cell_length_b    14.936314146199727
_cell_length_c    13.341276283792837
_cell_angle_alpha    90.0
_cell_angle_beta    90.0
_cell_angle_gamma    119.99999999999984

_symmetry_space_group_name_H-M    'P 1'
loop_
_atom_site_label
_atom_site_type_symbol
_atom_site_fract_x
_atom_site_fract_y
_atom_site_fract_z
_atom_site_occupancy
Ga2   Ga   0.488898982793855   0.411116158063691   0.375000000000000   1.0000000
N2   N   0.111091767349572   0.055545076145309   0.125263073701062   1.0000000
N2   N   0.611081565506446   0.555574992113105   0.126453006777926   1.0000000
N2   N   0.444391077829490   0.055504936806044   0.125249407120198   1.0000000
N2   N   0.944385494916164   0.555524882087860   0.125307452619228   1.0000000
N2   N   0.777744057352261   0.055538695342777   0.125055177710138   1.0000000
N2   N   0.111043004895795   0.722188169114462   0.624943599903128   1.0000000
N2   N   0.444391077829490   0.722219474356632   0.624750592879695   1.0000000
N2   N   0.277785445060115   0.222219522919819   0.623426141273648   1.0000000
N2   N   0.777731482244457   0.722208966458113   0.624454339043188   1.0000000
N2   N   0.611059933779641   0.222165280894658   0.624456663307842   1.0000000
N2   N   0.944427564653967   0.222212670656918   0.624906122167260   1.0000000
N2   N   0.277711305708187   0.722190694303810   0.125046179977329   1.0000000
N2   N   0.111114227969825   0.222223780651609   0.125524548851537   1.0000000
N2   N   0.444423187653991   0.222180226635130   0.126574733478926   1.0000000
N2   N   0.611059933779641   0.722227986218049   0.125543336692016   1.0000000
N2   N   0.944385494916164   0.722193946161555   0.125307452619228   1.0000000
N2   N   0.777739051588853   0.222194083266362   0.125168820710121   1.0000000
N2   N   0.111058689338041   0.888862559785978   0.624918576360292   1.0000000
N2   N   0.444382760573927   0.888858046953451   0.624988177946419   1.0000000
N2   N   0.277785445060115   0.388899255473703   0.623426141273648   1.0000000
N2   N   0.611081565506446   0.388839906726563   0.623546993222138   1.0000000
N2   N   0.777739051588853   0.888878301655835   0.624831179289843   1.0000000
N2   N   0.944406813035026   0.388865611324664   0.624880884030395   1.0000000
N2   N   0.111091767349572   0.388880024537542   0.125263073701062   1.0000000
N2   N   0.277711305708187   0.888853944737706   0.125046179977336   1.0000000
N2   N   0.611060555530203   0.888877367265402   0.125082353805761   1.0000000
N2   N   0.444548645101242   0.388940989217250   0.129897010020674   1.0000000
N2   N   0.944406813035026   0.888874535043754   0.125119115969612   1.0000000
N2   N   0.777731482244457   0.388855849119559   0.125545660956954   1.0000000
N2   N   0.277739195456730   0.555541342047044   0.624446944829958   1.0000000
N2   N   0.111091767349572   0.055545076145309   0.624736926298817   1.0000000
N2   N   0.611081565506446   0.555574992113105   0.623546993222138   1.0000000
N2   N   0.444391077829490   0.055504936806044   0.624750592879695   1.0000000
N2   N   0.944385494916164   0.555524882087860   0.624692547380807   1.0000000
N2   N   0.111058689338041   0.555529462885306   0.125081423639616   1.0000000
N2   N   0.777744057352261   0.055538695342777   0.624944822289734   1.0000000
N2   N   0.277739195456730   0.055531186743079   0.125553055170091   1.0000000
N2   N   0.444423187653991   0.555576294352118   0.126574733478933   1.0000000
N2   N   0.777710519860985   0.555521926597367   0.125877648193038   1.0000000
N2   N   0.611060555530203   0.055516521598066   0.125082353805761   1.0000000
N2   N   0.444423187653991   0.555576294352118   0.623425266521067   1.0000000
N2   N   0.944427564653967   0.055548227330391   0.125093877832797   1.0000000
N2   N   0.277711305708187   0.722190694303810   0.624953820022677   1.0000000
N2   N   0.111114227969825   0.222223780651609   0.624475451148442   1.0000000
N2   N   0.444423187653991   0.222180226635130   0.623425266521067   1.0000000
N2   N   0.611059933779641   0.722227986218049   0.624456663307842   1.0000000
N2   N   0.944385494916164   0.722193946161555   0.624692547380807   1.0000000
N2   N   0.777739051588853   0.222194083266362   0.624831179289843   1.0000000
N2   N   0.111043004895795   0.722188169114462   0.125056400096900   1.0000000
N2   N   0.444391077829490   0.722219474356632   0.125249407120198   1.0000000
N2   N   0.277785445060115   0.222219522919819   0.126573858726224   1.0000000
N2   N   0.777731482244457   0.722208966458113   0.125545660956961   1.0000000
N2   N   0.611059933779641   0.222165280894658   0.125543336692023   1.0000000
N2   N   0.944427564653967   0.222212670656918   0.125093877832797   1.0000000
N2   N   0.111091767349572   0.388880024537542   0.624736926298817   1.0000000
N2   N   0.277711305708187   0.888853944737706   0.624953820022677   1.0000000
N2   N   0.611060555530203   0.888877367265402   0.624917646194061   1.0000000
N2   N   0.444548645101242   0.388940989217250   0.620102989979198   1.0000000
N2   N   0.944406813035026   0.888874535043754   0.624880884030395   1.0000000
N2   N   0.111058689338041   0.888862559785978   0.125081423639616   1.0000000
N2   N   0.777731482244457   0.388855849119559   0.624454339043188   1.0000000
N2   N   0.444382760573927   0.888858046953451   0.125011822053659   1.0000000
N2   N   0.277785445060115   0.388899255473703   0.126573858726224   1.0000000
N2   N   0.277739195456730   0.555541342047044   0.125553055170091   1.0000000
N2   N   0.611081565506446   0.388839906726563   0.126453006777926   1.0000000
N2   N   0.777739051588853   0.888878301655835   0.125168820710121   1.0000000
N2   N   0.944406813035026   0.388865611324664   0.125119115969612   1.0000000
N2   N   0.111058689338041   0.555529462885306   0.624918576360292   1.0000000
N2   N   0.277739195456730   0.055531186743079   0.624446944829958   1.0000000
N2   N   0.777710519860985   0.555521926597367   0.624122351806941   1.0000000
N2   N   0.611060555530203   0.055516521598066   0.624917646194061   1.0000000
N2   N   0.944427564653967   0.055548227330398   0.624906122167260   1.0000000
N2   N   0.058439559316568   0.112724426274169   0.375000000000000   1.0000000
N2   N   0.556150875446239   0.619320715644765   0.375000000000000   1.0000000
N2   N   0.388381012419061   0.105568262751665   0.375000000000000   1.0000000
N2   N   0.886120002965197   0.609726668149522   0.375000000000000   1.0000000
N2   N   0.724291438038721   0.111314113613203   0.375000000000000   1.0000000
N2   N   0.055881817065179   0.777942573265876   0.875000000000000   1.0000000
N2   N   0.389221973729600   0.777939266994529   0.875000000000000   1.0000000
N2   N   0.222564962899926   0.277949148116624   0.875000000000000   1.0000000
N2   N   0.722552175715094   0.777937744641688   0.875000000000000   1.0000000
N2   N   0.555893526280011   0.277949050966590   0.875000000000000   1.0000000
N2   N   0.889219059291082   0.277946261039096   0.875000000000000   1.0000000
N2   N   0.220907231094312   0.777120282213920   0.375000000000000   1.0000000
N2   N   0.058439559316575   0.279048466375842   0.375000000000000   1.0000000
N2   N   0.390445368048143   0.270056436988839   0.375000000000000   1.0000000
N2   N   0.556389485496994   0.781810159641564   0.375000000000000   1.0000000
N2   N   0.888823850474639   0.778285368323409   0.375000000000000   1.0000000
N2   N   0.723867026312574   0.276430881820018   0.375000000000000   1.0000000
N2   N   0.055889236252525   0.944616469993553   0.875000000000000   1.0000000
N2   N   0.389221973729600   0.944616040068413   0.875000000000000   1.0000000
N2   N   0.222557516779772   0.444603804968197   0.875000000000000   1.0000000
N2   N   0.555879363608973   0.444606348471154   0.875000000000000   1.0000000
N2   N   0.722554277562355   0.944610047979533   0.875000000000000   1.0000000
N2   N   0.889218265562023   0.444609280374603   0.875000000000000   1.0000000
N2   N   0.056062457000018   0.444891767444687   0.375000000000000   1.0000000
N2   N   0.221271894385386   0.942780210761551   0.375000000000000   1.0000000
N2   N   0.556409866619919   0.944871599976603   0.375000000000000   1.0000000
N2   N   0.390445368048143   0.453722264392668   0.375000000000000   1.0000000
N2   N   0.891069110871740   0.946266891469449   0.375000000000000   1.0000000
N2   N   0.720641707290366   0.441898057352913   0.375000000000000   1.0000000
N2   N   0.222553767715761   0.611269870445242   0.875000000000000   1.0000000
N2   N   0.055886001952257   0.111278573268057   0.875000000000000   1.0000000
N2   N   0.555893526280011   0.611277808646806   0.875000000000000   1.0000000
N2   N   0.389228288537109   0.111296153883277   0.875000000000000   1.0000000
N2   N   0.889211724645516   0.611272528989316   0.875000000000000   1.0000000
N2   N   0.054033737273643   0.610623368316349   0.375000000000000   1.0000000
N2   N   0.722554277562355   0.111277562916066   0.875000000000000   1.0000000
N2   N   0.223241845579579   0.110431715147622   0.375000000000000   1.0000000
N2   N   0.388381012419061   0.616146083000632   0.375000000000000   1.0000000
N2   N   0.720641707290373   0.612076983270775   0.375000000000000   1.0000000
N2   N   0.556389485496994   0.107912659188616   0.375000000000000   1.0000000
N2   N   0.389228288537109   0.611265467987195   0.875000000000000   1.0000000
N2   N   0.891567753243719   0.112450543288599   0.375000000000000   1.0000000
N2   N   0.222554071996890   0.777943702665166   0.875000000000000   1.0000000
N2   N   0.055886001952257   0.277940762017529   0.875000000000000   1.0000000
N2   N   0.389234457830778   0.277960913367952   0.875000000000000   1.0000000
N2   N   0.555888955202783   0.777944322364073   0.875000000000000   1.0000000
N2   N   0.889218265562023   0.777942318520805   0.875000000000000   1.0000000
N2   N   0.722552175715094   0.277947764406777   0.875000000000000   1.0000000
N2   N   0.054033737273636   0.776743702290545   0.375000000000000   1.0000000
N2   N   0.388356807953099   0.779167889696829   0.375000000000000   1.0000000
N2   N   0.226520544521987   0.279926938927736   0.375000000000000   1.0000000
N2   N   0.723867026312574   0.780769477825699   0.375000000000000   1.0000000
N2   N   0.556150875446239   0.270163493134761   0.375000000000000   1.0000000
N2   N   0.891069110871740   0.278135552735762   0.375000000000000   1.0000000
N2   N   0.055889236252525   0.444606099592407   0.875000000000000   1.0000000
N2   N   0.222553767715761   0.944617230603770   0.875000000000000   1.0000000
N2   N   0.555884482285062   0.944608907809153   0.875000000000000   1.0000000
N2   N   0.389234457830771   0.444606877796190   0.875000000000000   1.0000000
N2   N   0.889219059291082   0.944606131585122   0.875000000000000   1.0000000
N2   N   0.056062457000025   0.944504022888646   0.375000000000000   1.0000000
N2   N   0.722547694687772   0.444610037347363   0.875000000000000   1.0000000
N2   N   0.388356807953099   0.942522251589619   0.375000000000000   1.0000000
N2   N   0.223241845579579   0.446143463765236   0.375000000000000   1.0000000
N2   N   0.221271894385386   0.611825016957397   0.375000000000000   1.0000000
N2   N   0.724291438038721   0.946310657758868   0.375000000000000   1.0000000
N2   N   0.888823850474639   0.443871815484729   0.375000000000000   1.0000000
N2   N   0.055881817065179   0.611272577132709   0.875000000000000   1.0000000
N2   N   0.222557516779772   0.111287045144881   0.875000000000000   1.0000000
N2   N   0.722547694687772   0.611270990673425   0.875000000000000   1.0000000
N2   N   0.555888955202783   0.111277966171839   0.875000000000000   1.0000000
N2   N   0.889223931605284   0.111278632469303   0.875000000000000   1.0000000
B2   B   0.112292941252055   0.055604775018527   0.375000000000000   1.0000000
B2   B   0.611785145995195   0.566501912090116   0.375000000000000   1.0000000
B2   B   0.444961742692540   0.052295078984604   0.375000000000000   1.0000000
B2   B   0.942872551703167   0.554887876121071   0.375000000000000   1.0000000
B2   B   0.780610200835587   0.056971767084404   0.375000000000000   1.0000000
B2   B   0.111493635292409   0.722413484312787   0.875000000000000   1.0000000
B2   B   0.444754222214085   0.722333135629774   0.875000000000000   1.0000000
B2   B   0.278090781891052   0.222414760496391   0.875000000000000   1.0000000
B2   B   0.778097221780406   0.722432818643939   0.875000000000000   1.0000000
B2   B   0.611491603102710   0.222404619531153   0.875000000000000   1.0000000
B2   B   0.944768085877926   0.222340145391296   0.875000000000000   1.0000000
B2   B   0.277170429892124   0.722838135441008   0.375000000000000   1.0000000
B2   B   0.115245589363707   0.224289461348521   0.375000000000000   1.0000000
B2   B   0.443734689910859   0.214608369062122   0.375000000000000   1.0000000
B2   B   0.613316362583508   0.729090947212627   0.375000000000000   1.0000000
B2   B   0.942872551703167   0.721318008915488   0.375000000000000   1.0000000
B2   B   0.780207090811156   0.222047641042780   0.375000000000000   1.0000000
B2   B   0.111429138607166   0.889097501301173   0.875000000000000   1.0000000
B2   B   0.444825743775364   0.889079538554158   0.875000000000000   1.0000000
B2   B   0.278090781891052   0.389009354727983   0.875000000000000   1.0000000
B2   B   0.611420824061953   0.389057960891480   0.875000000000000   1.0000000
B2   B   0.778097595243593   0.889018214426454   0.875000000000000   1.0000000
B2   B   0.944838295250272   0.389070121250578   0.875000000000000   1.0000000
B2   B   0.112292941252055   0.390021499566820   0.375000000000000   1.0000000
B2   B   0.277170429892124   0.887665627784232   0.375000000000000   1.0000000
B2   B   0.613089172321504   0.891721022813589   0.375000000000000   1.0000000
B2   B   0.945337924980778   0.889640401586436   0.375000000000000   1.0000000
B2   B   0.778233661908859   0.387342565030781   0.375000000000000   1.0000000
B2   B   0.278141929111442   0.555714984327066   0.875000000000000   1.0000000
B2   B   0.111433429987499   0.055693680788591   0.875000000000000   1.0000000
B2   B   0.611420824061953   0.555696196503879   0.875000000000000   1.0000000
B2   B   0.444754222214085   0.055754419917675   0.875000000000000   1.0000000
B2   B   0.944763634343368   0.555749505501182   0.875000000000000   1.0000000
B2   B   0.110198710293913   0.555688789721273   0.375000000000000   1.0000000
B2   B   0.778173691685894   0.055753512509576   0.875000000000000   1.0000000
B2   B   0.277556074380258   0.053256865150713   0.375000000000000   1.0000000
B2   B   0.443734689910859   0.562459654182052   0.375000000000000   1.0000000
B2   B   0.774942505001625   0.554137919167420   0.375000000000000   1.0000000
B2   B   0.613089172321504   0.054701482841293   0.375000000000000   1.0000000
B2   B   0.444739019832394   0.555722413434625   0.875000000000000   1.0000000
B2   B   0.947234710940805   0.057350691198064   0.375000000000000   1.0000000
B2   B   0.278079983470525   0.722402644950969   0.875000000000000   1.0000000
B2   B   0.111487113416732   0.222410223375073   0.875000000000000   1.0000000
B2   B   0.444739019832394   0.222349939731033   0.875000000000000   1.0000000
B2   B   0.611491603102710   0.722420316904928   0.875000000000000   1.0000000
B2   B   0.944763634343368   0.722347462175649   0.875000000000000   1.0000000
B2   B   0.778097595243593   0.222412714150389   0.875000000000000   1.0000000
B2   B   0.109895351869207   0.721614342601335   0.375000000000000   1.0000000
B2   B   0.444961742692540   0.725999997041372   0.375000000000000   1.0000000
B2   B   0.280816888237788   0.222219722379570   0.375000000000000   1.0000000
B2   B   0.778233661908859   0.724224430211477   0.375000000000000   1.0000000
B2   B   0.613316362583508   0.217558748704068   0.375000000000000   1.0000000
B2   B   0.947234710940805   0.223217353075977   0.375000000000000   1.0000000
B2   B   0.111433429987499   0.389073082532308   0.875000000000000   1.0000000
B2   B   0.278079983470525   0.889010671852821   0.875000000000000   1.0000000
B2   B   0.611419810276586   0.889085283838761   0.875000000000000   1.0000000
B2   B   0.444768052854301   0.389050693093761   0.875000000000000   1.0000000
B2   B   0.944838295250272   0.889101507333130   0.875000000000000   1.0000000
B2   B   0.110198710293913   0.887843253906153   0.375000000000000   1.0000000
B2   B   0.778097221780406   0.388997736469668   0.875000000000000   1.0000000
B2   B   0.445082231935656   0.889207782634493   0.375000000000000   1.0000000
B2   B   0.280816888237788   0.391930499191532   0.375000000000000   1.0000000
B2   B   0.277556074380258   0.557632542562966   0.375000000000000   1.0000000
B2   B   0.611785145995195   0.378616567238144   0.375000000000000   1.0000000
B2   B   0.780207090811156   0.891492783101577   0.375000000000000   1.0000000
B2   B   0.945337924980778   0.389030856727592   0.375000000000000   1.0000000
B2   B   0.111429138607166   0.555664970639429   0.875000000000000   1.0000000
B2   B   0.278141929111442   0.055760278117953   0.875000000000000   1.0000000
B2   B   0.778169030338622   0.555751181836064   0.875000000000000   1.0000000
B2   B   0.611419810276586   0.055667859771117   0.875000000000000   1.0000000
B2   B   0.944768085877926   0.055761273819759   0.875000000000000   1.0000000
B2   B   0.055527270246644   0.111102835409518   0.125165393369803   1.0000000
B2   B   0.555498394979983   0.611222017899153   0.125959927219360   1.0000000
B2   B   0.388802987761546   0.110976435498059   0.125627925001994   1.0000000
B2   B   0.888916851861325   0.611125092597359   0.125326795969164   1.0000000
B2   B   0.722185081786558   0.111067545816388   0.124965519139245   1.0000000
B2   B   0.055520451251963   0.777760628296410   0.625017900258879   1.0000000
B2   B   0.388812612008652   0.777772182713634   0.625048187662702   1.0000000
B2   B   0.222172550492266   0.277752941912758   0.623708474575017   1.0000000
B2   B   0.722205330617517   0.777830933430722   0.624747326465432   1.0000000
B2   B   0.555498394979983   0.277609710414031   0.624040072780583   1.0000000
B2   B   0.888870028309775   0.277747468676056   0.625011273946608   1.0000000
B2   B   0.222144734061580   0.777739033697341   0.124912105819454   1.0000000
B2   B   0.055527270246644   0.277757768170355   0.125165393369803   1.0000000
B2   B   0.388736421421444   0.277541768323679   0.127758772875022   1.0000000
B2   B   0.555489721112732   0.777820064646734   0.125116879968722   1.0000000
B2   B   0.888897447615684   0.777810719158639   0.125150886247858   1.0000000
B2   B   0.722205330617517   0.277707730520125   0.125252673534653   1.0000000
B2   B   0.055519448039155   0.944433830124712   0.624991100186660   1.0000000
B2   B   0.388812612008652   0.944373762628402   0.625048187662702   1.0000000
B2   B   0.222162071734925   0.444429392409321   0.624374722393379   1.0000000
B2   B   0.555718094117742   0.444525713725539   0.623132432837570   1.0000000
B2   B   0.722185081786558   0.944450869303782   0.625034480860748   1.0000000
B2   B   0.888897447615684   0.444420061790373   0.624849113752128   1.0000000
B2   B   0.055519448039155   0.444418951247878   0.125008899813369   1.0000000
B2   B   0.222144989917587   0.944381022064445   0.125034646934850   1.0000000
B2   B   0.555488351909369   0.944410842621335   0.124944492741375   1.0000000
B2   B   0.388736421421444   0.444527986431036   0.127758772875022   1.0000000
B2   B   0.888870028309775   0.944455892967210   0.124988726053428   1.0000000
B2   B   0.722306779975926   0.444441376802141   0.125659205479902   1.0000000
B2   B   0.222144989917587   0.611097301186470   0.624965353065129   1.0000000
B2   B   0.055527270246644   0.111102835409511   0.624834606630240   1.0000000
B2   B   0.555498394979983   0.611222017899153   0.624040072780583   1.0000000
B2   B   0.388802987761546   0.110976435498059   0.624372074997999   1.0000000
B2   B   0.888916851861325   0.611125092597359   0.624673204030737   1.0000000
B2   B   0.055520451251963   0.611093156288910   0.124982099741078   1.0000000
B2   B   0.722185081786558   0.111067545816388   0.625034480860748   1.0000000
B2   B   0.222162071734925   0.111066012658940   0.125625277606671   1.0000000
B2   B   0.388802987761546   0.611159885596872   0.125627925001994   1.0000000
B2   B   0.722306779975926   0.611198736507243   0.125659205479902   1.0000000
B2   B   0.555489721112732   0.111002989799298   0.125116879968722   1.0000000
B2   B   0.388802987761546   0.611159885596872   0.624372074997999   1.0000000
B2   B   0.888864751371360   0.111099042352355   0.124984916408156   1.0000000
B2   B   0.222144734061580   0.777739033697341   0.625087894180532   1.0000000
B2   B   0.055527270246644   0.277757768170355   0.624834606630240   1.0000000
B2   B   0.388736421421444   0.277541768323679   0.622241227125070   1.0000000
B2   B   0.555489721112732   0.777820064646734   0.624883120031200   1.0000000
B2   B   0.888897447615684   0.777810719158639   0.624849113752128   1.0000000
B2   B   0.722205330617517   0.277707730520125   0.624747326465432   1.0000000
B2   B   0.055520451251963   0.777760628296410   0.124982099741078   1.0000000
B2   B   0.388812612008652   0.777772182713634   0.124951812337191   1.0000000
B2   B   0.222172550492266   0.277752941912758   0.126291525424983   1.0000000
B2   B   0.722205330617517   0.777830933430722   0.125252673534653   1.0000000
B2   B   0.555498394979983   0.277609710414031   0.125959927219360   1.0000000
B2   B   0.888870028309775   0.277747468676056   0.124988726053428   1.0000000
B2   B   0.055519448039155   0.444418951247878   0.624991100186660   1.0000000
B2   B   0.222144989917587   0.944381022064445   0.624965353065129   1.0000000
B2   B   0.555488351909369   0.944410842621335   0.625055507258710   1.0000000
B2   B   0.388736421421444   0.444527986431036   0.622241227125070   1.0000000
B2   B   0.888870028309775   0.944455892967210   0.625011273946608   1.0000000
B2   B   0.055519448039155   0.944433830124712   0.125008899813369   1.0000000
B2   B   0.722306779975926   0.444441376802141   0.624340794519857   1.0000000
B2   B   0.388812612008652   0.944373762628402   0.124951812337191   1.0000000
B2   B   0.222162071734925   0.444429392409321   0.125625277606671   1.0000000
B2   B   0.222144989917587   0.611097301186470   0.125034646934850   1.0000000
B2   B   0.555718094117749   0.444525713725539   0.126867567162337   1.0000000
B2   B   0.722185081786558   0.944450869303782   0.124965519139245   1.0000000
B2   B   0.888897447615684   0.444420061790373   0.125150886247858   1.0000000
B2   B   0.055520451251963   0.611093156288910   0.625017900258879   1.0000000
B2   B   0.222162071734925   0.111066012658940   0.624374722393379   1.0000000
B2   B   0.722306779975926   0.611198736507243   0.624340794519857   1.0000000
B2   B   0.555489721112732   0.111002989799291   0.624883120031200   1.0000000
B2   B   0.888864751371360   0.111099042352355   0.625015083591680   1.0000000


