data_1
_audit_creation_method   'vasp2cif'
_cell_length_a    14.93631414619966
_cell_length_b    14.936314146199727
_cell_length_c    13.341276283792837
_cell_angle_alpha    90.0
_cell_angle_beta    90.0
_cell_angle_gamma    119.99999999999984

_symmetry_space_group_name_H-M    'P 1'
loop_
_atom_site_label
_atom_site_type_symbol
_atom_site_fract_x
_atom_site_fract_y
_atom_site_fract_z
_atom_site_occupancy
N2   N   0.111099807591853   0.055562892420918   0.124931475710983   1.0000000
N2   N   0.611110066305954   0.555571311133624   0.125569716090637   1.0000000
N2   N   0.444463084829080   0.055562892420918   0.124931475710983   1.0000000
N2   N   0.944432237207251   0.555543015520685   0.124863380614164   1.0000000
N2   N   0.777777777777779   0.055555555555557   0.124821484185191   1.0000000
N2   N   0.111111111111114   0.722222222222221   0.625148047186724   1.0000000
N2   N   0.444463084829080   0.722233525741490   0.625068524289017   1.0000000
N2   N   0.277762022199711   0.222223267027381   0.624430283909363   1.0000000
N2   N   0.777770440912417   0.722233525741490   0.625068524289017   1.0000000
N2   N   0.611123279427036   0.222210053906299   0.624991264527107   1.0000000
N2   N   0.944430273316498   0.222210126172147   0.625179330721397   1.0000000
N2   N   0.277790317812650   0.722222555019901   0.124863380614164   1.0000000
N2   N   0.111086774479270   0.222210053906299   0.125008735472893   1.0000000
N2   N   0.444461244827670   0.222223267027381   0.125569716090637   1.0000000
N2   N   0.611123279427036   0.722246558854066   0.125008735472893   1.0000000
N2   N   0.944432237207251   0.722222555019901   0.124863380614164   1.0000000
N2   N   0.777779852855649   0.222210126172147   0.124820669278603   1.0000000
N2   N   0.111110778313434   0.888901096126078   0.625136619385836   1.0000000
N2   N   0.444460330509841   0.888896831921585   0.625184890471811   1.0000000
N2   N   0.277762022199711   0.388872088505659   0.624430283909363   1.0000000
N2   N   0.611110066305954   0.388872088505659   0.624430283909363   1.0000000
N2   N   0.777779852855649   0.888903060016830   0.625179330721397   1.0000000
N2   N   0.944436501411743   0.388873002823487   0.625184890471811   1.0000000
N2   N   0.111099807591853   0.388870248504249   0.124931475710983   1.0000000
N2   N   0.277790317812650   0.888901096126078   0.124863380614164   1.0000000
N2   N   0.611123207161188   0.888903060016830   0.124820669278603   1.0000000
N2   N   0.444444444444443   0.388888888888886   0.125240379495382   1.0000000
N2   N   0.944436501411743   0.888896831921585   0.124815109528189   1.0000000
N2   N   0.777770440912417   0.388870248504249   0.124931475710983   1.0000000
N2   N   0.277786443346170   0.555546889987165   0.624890211268619   1.0000000
N2   N   0.111099807591853   0.055562892420918   0.625068524289017   1.0000000
N2   N   0.611110066305954   0.555571311133624   0.624430283909363   1.0000000
N2   N   0.444463084829080   0.055562892420918   0.625068524289017   1.0000000
N2   N   0.944432237207251   0.555543015520685   0.625136619385836   1.0000000
N2   N   0.111110778313434   0.555543015520685   0.124863380614164   1.0000000
N2   N   0.777777777777779   0.055555555555557   0.625178515814802   1.0000000
N2   N   0.277786443346170   0.055572886692348   0.125109788731382   1.0000000
N2   N   0.444461244827670   0.555571311133624   0.125569716090637   1.0000000
N2   N   0.777760446640988   0.555546889987165   0.125109788731382   1.0000000
N2   N   0.611123207161188   0.055553480477687   0.124820669278603   1.0000000
N2   N   0.444461244827670   0.555571311133624   0.624430283909363   1.0000000
N2   N   0.944430273316498   0.055553480477687   0.124820669278603   1.0000000
N2   N   0.277790317812650   0.722222555019901   0.625136619385836   1.0000000
N2   N   0.111086774479270   0.222210053906299   0.624991264527107   1.0000000
N2   N   0.444461244827670   0.222223267027381   0.624430283909363   1.0000000
N2   N   0.611123279427036   0.722246558854066   0.624991264527107   1.0000000
N2   N   0.944432237207251   0.722222555019901   0.625136619385836   1.0000000
N2   N   0.777779852855649   0.222210126172147   0.625179330721397   1.0000000
N2   N   0.111111111111114   0.722222222222221   0.124851952813276   1.0000000
N2   N   0.444463084829080   0.722233525741490   0.124931475710983   1.0000000
N2   N   0.277762022199711   0.222223267027381   0.125569716090637   1.0000000
N2   N   0.777770440912417   0.722233525741490   0.124931475710983   1.0000000
N2   N   0.611123279427036   0.222210053906299   0.125008735472893   1.0000000
N2   N   0.944430273316498   0.222210126172147   0.124820669278603   1.0000000
N2   N   0.111099807591853   0.388870248504249   0.625068524289017   1.0000000
N2   N   0.277790317812650   0.888901096126078   0.625136619385836   1.0000000
N2   N   0.611123207161188   0.888903060016830   0.625179330721397   1.0000000
N2   N   0.444444444444443   0.388888888888886   0.624759620504617   1.0000000
N2   N   0.944436501411743   0.888896831921585   0.625184890471811   1.0000000
N2   N   0.111110778313434   0.888901096126078   0.124863380614164   1.0000000
N2   N   0.777770440912417   0.388870248504249   0.625068524289017   1.0000000
N2   N   0.444460330509841   0.888896831921585   0.124815109528189   1.0000000
N2   N   0.277762022199711   0.388872088505659   0.125569716090637   1.0000000
N2   N   0.277786443346170   0.555546889987165   0.125109788731382   1.0000000
N2   N   0.611110066305954   0.388872088505659   0.125569716090637   1.0000000
N2   N   0.777779852855649   0.888903060016830   0.124820669278603   1.0000000
N2   N   0.944436501411743   0.388873002823487   0.124815109528189   1.0000000
N2   N   0.111110778313434   0.555543015520685   0.625136619385836   1.0000000
N2   N   0.277786443346170   0.055572886692348   0.624890211268619   1.0000000
N2   N   0.777760446640988   0.555546889987165   0.624890211268619   1.0000000
N2   N   0.611123207161188   0.055553480477687   0.625179330721397   1.0000000
N2   N   0.944430273316498   0.055553480477687   0.625179330721397   1.0000000
N2   N   0.055133826578699   0.110811853504360   0.375000000000000   1.0000000
N2   N   0.555951084027889   0.611902168055779   0.375000000000000   1.0000000
N2   N   0.388836766874136   0.109787578249852   0.375000000000000   1.0000000
N2   N   0.889315216826424   0.611324275079891   0.375000000000000   1.0000000
N2   N   0.722281847273693   0.111051486059642   0.375000000000000   1.0000000
N2   N   0.055556554033311   0.777776779300024   0.875000000000000   1.0000000
N2   N   0.388884605419581   0.777777142795581   0.875000000000000   1.0000000
N2   N   0.222224631960499   0.277778982646917   0.875000000000000   1.0000000
N2   N   0.722223748379125   0.777775902616760   0.875000000000000   1.0000000
N2   N   0.555554350686418   0.277778982646917   0.875000000000000   1.0000000
N2   N   0.888891895390605   0.277783790781216   0.875000000000000   1.0000000
N2   N   0.222092866774127   0.777713100053731   0.375000000000000   1.0000000
N2   N   0.055133826578699   0.277655306407674   0.375000000000000   1.0000000
N2   N   0.386322863528610   0.272645727057226   0.375000000000000   1.0000000
N2   N   0.555678026925669   0.778199506754637   0.375000000000000   1.0000000
N2   N   0.889351517614325   0.778113427439534   0.375000000000000   1.0000000
N2   N   0.722521479828976   0.277655306407674   0.375000000000000   1.0000000
N2   N   0.055556190537755   0.944440795957343   0.875000000000000   1.0000000
N2   N   0.388884605419581   0.944440795957343   0.875000000000000   1.0000000
N2   N   0.222222029677603   0.444447456941775   0.875000000000000   1.0000000
N2   N   0.555557617761731   0.444445475547523   0.875000000000000   1.0000000
N2   N   0.722221133023907   0.944442266047821   0.875000000000000   1.0000000
N2   N   0.888892537375985   0.444448727913747   0.875000000000000   1.0000000
N2   N   0.055219905893795   0.444571423508127   0.375000000000000   1.0000000
N2   N   0.222009058253445   0.944018116506904   0.375000000000000   1.0000000
N2   N   0.555584541236070   0.944458937284696   0.375000000000000   1.0000000
N2   N   0.386322863528610   0.447010469804719   0.375000000000000   1.0000000
N2   N   0.888874396048633   0.944458937284696   0.375000000000000   1.0000000
N2   N   0.723545755083483   0.444496566459192   0.375000000000000   1.0000000
N2   N   0.222219810785919   0.611113522547416   0.875000000000000   1.0000000
N2   N   0.055557430716576   0.111109584954204   0.875000000000000   1.0000000
N2   N   0.555554350686418   0.611108701372837   0.875000000000000   1.0000000
N2   N   0.388885876391553   0.111107906069163   0.875000000000000   1.0000000
N2   N   0.888893711761483   0.611113522547416   0.875000000000000   1.0000000
N2   N   0.055620233279604   0.611240466559208   0.375000000000000   1.0000000
N2   N   0.722221133023907   0.111112200309428   0.875000000000000   1.0000000
N2   N   0.220950811375716   0.109787578249852   0.375000000000000   1.0000000
N2   N   0.388836766874136   0.612382521957620   0.375000000000000   1.0000000
N2   N   0.723545755083483   0.612382521957620   0.375000000000000   1.0000000
N2   N   0.555678026925669   0.110811853504360   0.375000000000000   1.0000000
N2   N   0.388885876391553   0.611111303655733   0.875000000000000   1.0000000
N2   N   0.888769638785941   0.111051486059642   0.375000000000000   1.0000000
N2   N   0.222220225266706   0.777776779300024   0.875000000000000   1.0000000
N2   N   0.055557430716576   0.277781179095708   0.875000000000000   1.0000000
N2   N   0.388887857785806   0.277775715571605   0.875000000000000   1.0000000
N2   N   0.555552154237628   0.777775902616760   0.875000000000000   1.0000000
N2   N   0.888892537375985   0.777777142795581   0.875000000000000   1.0000000
N2   N   0.722223748379125   0.277781179095708   0.875000000000000   1.0000000
N2   N   0.055620233279604   0.777713100053731   0.375000000000000   1.0000000
N2   N   0.388761909825201   0.778113427439534   0.375000000000000   1.0000000
N2   N   0.221431165277556   0.277382249305446   0.375000000000000   1.0000000
N2   N   0.722521479828976   0.778199506754637   0.375000000000000   1.0000000
N2   N   0.555951084027889   0.277382249305446   0.375000000000000   1.0000000
N2   N   0.888874396048633   0.277748792097265   0.375000000000000   1.0000000
N2   N   0.055556190537755   0.444448727913747   0.875000000000000   1.0000000
N2   N   0.222219810785919   0.944439621571846   0.875000000000000   1.0000000
N2   N   0.555549542552120   0.944441437942724   0.875000000000000   1.0000000
N2   N   0.388887857785806   0.444445475547523   0.875000000000000   1.0000000
N2   N   0.888891895390605   0.944441437942724   0.875000000000000   1.0000000
N2   N   0.055219905893795   0.943981815719003   0.375000000000000   1.0000000
N2   N   0.722225427264173   0.444447456941775   0.875000000000000   1.0000000
N2   N   0.388761909825201   0.943981815719003   0.375000000000000   1.0000000
N2   N   0.220950811375716   0.444496566459192   0.375000000000000   1.0000000
N2   N   0.222009058253445   0.611324275079891   0.375000000000000   1.0000000
N2   N   0.560687606276109   0.447010469804719   0.375000000000000   1.0000000
N2   N   0.722281847273693   0.944563694547387   0.375000000000000   1.0000000
N2   N   0.889351517614325   0.444571423508127   0.375000000000000   1.0000000
N2   N   0.055556554033311   0.611113108066630   0.875000000000000   1.0000000
N2   N   0.222222029677603   0.111107906069163   0.875000000000000   1.0000000
N2   N   0.722225427264173   0.611111303655733   0.875000000000000   1.0000000
N2   N   0.555552154237628   0.111109584954204   0.875000000000000   1.0000000
N2   N   0.888891067285507   0.111112200309428   0.875000000000000   1.0000000
B2   B   0.110795127260720   0.055163500889973   0.375000000000000   1.0000000
B2   B   0.610896299445449   0.554890915158563   0.375000000000000   1.0000000
B2   B   0.444368373629253   0.055163500889973   0.375000000000000   1.0000000
B2   B   0.944542350890020   0.555628687069475   0.375000000000000   1.0000000
B2   B   0.777777777777779   0.055555555555557   0.375000000000000   1.0000000
B2   B   0.111111111111114   0.722222222222221   0.875000000000000   1.0000000
B2   B   0.444431847759041   0.722179156886936   0.875000000000000   1.0000000
B2   B   0.277833802478835   0.222269006478247   0.875000000000000   1.0000000
B2   B   0.777747309127895   0.722179156886936   0.875000000000000   1.0000000
B2   B   0.611079279545710   0.222254053787626   0.875000000000000   1.0000000
B2   B   0.944473030070655   0.222241725312908   0.875000000000000   1.0000000
B2   B   0.277704646263860   0.722246997153880   0.375000000000000   1.0000000
B2   B   0.111304003848781   0.222318668591048   0.375000000000000   1.0000000
B2   B   0.443994615713120   0.222437033887886   0.375000000000000   1.0000000
B2   B   0.611014664742288   0.722029329484555   0.375000000000000   1.0000000
B2   B   0.944542350890020   0.722246997153880   0.375000000000000   1.0000000
B2   B   0.777779128647301   0.222228582009060   0.375000000000000   1.0000000
B2   B   0.111123257890218   0.888902408087011   0.875000000000000   1.0000000
B2   B   0.444429874369949   0.888881603851635   0.875000000000000   1.0000000
B2   B   0.277833802478835   0.388898129333917   0.875000000000000   1.0000000
B2   B   0.611064326855089   0.388898129333917   0.875000000000000   1.0000000
B2   B   0.777768695242253   0.888860303262674   0.875000000000000   1.0000000
B2   B   0.944451729481693   0.388903458963380   0.875000000000000   1.0000000
B2   B   0.110795127260720   0.388964959704075   0.375000000000000   1.0000000
B2   B   0.277704646263860   0.888790982443309   0.375000000000000   1.0000000
B2   B   0.611104751324283   0.888883879971569   0.375000000000000   1.0000000
B2   B   0.944465743840780   0.888867589492549   0.375000000000000   1.0000000
B2   B   0.778169832443363   0.388964959704075   0.375000000000000   1.0000000
B2   B   0.277798027234896   0.555535306098439   0.875000000000000   1.0000000
B2   B   0.111154176446399   0.055586024205441   0.875000000000000   1.0000000
B2   B   0.611064326855089   0.555499530854508   0.875000000000000   1.0000000
B2   B   0.444431847759041   0.055586024205441   0.875000000000000   1.0000000
B2   B   0.944430925246317   0.555554183136543   0.875000000000000   1.0000000
B2   B   0.111086336179456   0.555628687069475   0.375000000000000   1.0000000
B2   B   0.777777777777779   0.055555555555557   0.875000000000000   1.0000000
B2   B   0.277754867106988   0.055509734213968   0.375000000000000   1.0000000
B2   B   0.443994615713120   0.554890915158563   0.375000000000000   1.0000000
B2   B   0.777823599119368   0.555578466226348   0.375000000000000   1.0000000
B2   B   0.611104751324283   0.055554204686035   0.375000000000000   1.0000000
B2   B   0.444435203999412   0.555499530854508   0.875000000000000   1.0000000
B2   B   0.944449453361759   0.055554204686035   0.375000000000000   1.0000000
B2   B   0.277779150196793   0.722210075443118   0.875000000000000   1.0000000
B2   B   0.111174774241923   0.222254053787626   0.875000000000000   1.0000000
B2   B   0.444435203999412   0.222269006478247   0.875000000000000   1.0000000
B2   B   0.611079279545710   0.722158559091412   0.875000000000000   1.0000000
B2   B   0.944430925246317   0.722210075443118   0.875000000000000   1.0000000
B2   B   0.777768695242253   0.222241725312908   0.875000000000000   1.0000000
B2   B   0.111111111111114   0.722222222222221   0.375000000000000   1.0000000
B2   B   0.444368373629253   0.722538206072616   0.375000000000000   1.0000000
B2   B   0.278442418174773   0.222437033887886   0.375000000000000   1.0000000
B2   B   0.778169832443363   0.722538206072616   0.375000000000000   1.0000000
B2   B   0.611014664742288   0.222318668591048   0.375000000000000   1.0000000
B2   B   0.944449453361759   0.222228582009060   0.375000000000000   1.0000000
B2   B   0.111154176446399   0.388901485574287   0.875000000000000   1.0000000
B2   B   0.277779150196793   0.888902408087011   0.875000000000000   1.0000000
B2   B   0.611091608020428   0.888860303262674   0.875000000000000   1.0000000
B2   B   0.444444444444443   0.388888888888886   0.875000000000000   1.0000000
B2   B   0.944451729481693   0.888881603851635   0.875000000000000   1.0000000
B2   B   0.111086336179456   0.888790982443309   0.375000000000000   1.0000000
B2   B   0.777747309127895   0.388901485574287   0.875000000000000   1.0000000
B2   B   0.444401845651769   0.888867589492549   0.375000000000000   1.0000000
B2   B   0.278442418174773   0.389338717620208   0.375000000000000   1.0000000
B2   B   0.277754867106988   0.555578466226348   0.375000000000000   1.0000000
B2   B   0.610896299445449   0.389338717620208   0.375000000000000   1.0000000
B2   B   0.777779128647301   0.888883879971569   0.375000000000000   1.0000000
B2   B   0.944465743840780   0.388931487681560   0.375000000000000   1.0000000
B2   B   0.111123257890218   0.555554183136543   0.875000000000000   1.0000000
B2   B   0.277798027234896   0.055596054469786   0.875000000000000   1.0000000
B2   B   0.777737278863550   0.555535306098439   0.875000000000000   1.0000000
B2   B   0.611091608020428   0.055564638091083   0.875000000000000   1.0000000
B2   B   0.944473030070655   0.055564638091083   0.875000000000000   1.0000000
B2   B   0.055629353671675   0.111186125641834   0.125149533998915   1.0000000
B2   B   0.555474249234828   0.610948498469664   0.125917685781771   1.0000000
B2   B   0.388968091655048   0.111319201045381   0.125588986095415   1.0000000
B2   B   0.888755617124712   0.611044475229024   0.125139203727459   1.0000000
B2   B   0.722212794884743   0.111120538448593   0.124997970330185   1.0000000
B2   B   0.055536497599709   0.777796835733626   0.624983871256186   1.0000000
B2   B   0.388940491751959   0.777745522201763   0.624948012096242   1.0000000
B2   B   0.222384834863672   0.277859084098507   0.624082314218221   1.0000000
B2   B   0.722147207691501   0.777703979661654   0.624850466001085   1.0000000
B2   B   0.555474249234828   0.277859084098507   0.624082314218221   1.0000000
B2   B   0.888880785801142   0.277761571602283   0.625001902583808   1.0000000
B2   B   0.222260338133917   0.777796835733626   0.125016128743814   1.0000000
B2   B   0.055629353671675   0.277776561363176   0.125149533998915   1.0000000
B2   B   0.389026848166741   0.278053696333496   0.126838796836169   1.0000000
B2   B   0.555556771970160   0.777703979661654   0.125149533998915   1.0000000
B2   B   0.888805030449797   0.777745522201763   0.125051987903758   1.0000000
B2   B   0.722147207691501   0.277776561363176   0.125149533998915   1.0000000
B2   B   0.055587811131573   0.944528302883532   0.624948012096242   1.0000000
B2   B   0.388940491751959   0.944528302883532   0.624948012096242   1.0000000
B2   B   0.222351109390326   0.444365241678280   0.624411013904585   1.0000000
B2   B   0.555279636999833   0.444306485166588   0.623161203163831   1.0000000
B2   B   0.722212794884743   0.944425589769493   0.625002029669814   1.0000000
B2   B   0.888805030449797   0.444392841581369   0.624948012096242   1.0000000
B2   B   0.055587811131573   0.444392841581369   0.125051987903758   1.0000000
B2   B   0.222288858104312   0.944577716208616   0.125139203727459   1.0000000
B2   B   0.555571761731053   0.944452547532187   0.124998097416192   1.0000000
B2   B   0.389026848166741   0.444306485166588   0.126838796836169   1.0000000
B2   B   0.888880785801142   0.944452547532187   0.124998097416192   1.0000000
B2   B   0.722014132287955   0.444365241678280   0.125588986095415   1.0000000
B2   B   0.222288858104312   0.611044475229024   0.624860796272548   1.0000000
B2   B   0.055629353671675   0.111186125641834   0.624850466001085   1.0000000
B2   B   0.555474249234828   0.610948498469664   0.624082314218221   1.0000000
B2   B   0.388968091655048   0.111319201045381   0.624411013904585   1.0000000
B2   B   0.888755617124712   0.611044475229024   0.624860796272548   1.0000000
B2   B   0.055536497599709   0.611072995199418   0.125016128743814   1.0000000
B2   B   0.722212794884743   0.111120538448593   0.625002029669814   1.0000000
B2   B   0.222351109390326   0.111319201045381   0.125588986095415   1.0000000
B2   B   0.388968091655048   0.610982223943010   0.125588986095415   1.0000000
B2   B   0.722014132287955   0.610982223943010   0.125588986095415   1.0000000
B2   B   0.555556771970160   0.111186125641834   0.125149533998915   1.0000000
B2   B   0.388968091655048   0.610982223943010   0.624411013904585   1.0000000
B2   B   0.888907743563836   0.111120538448593   0.124997970330185   1.0000000
B2   B   0.222260338133917   0.777796835733626   0.624983871256186   1.0000000
B2   B   0.055629353671675   0.277776561363176   0.624850466001085   1.0000000
B2   B   0.389026848166741   0.278053696333496   0.623161203163831   1.0000000
B2   B   0.555556771970160   0.777703979661654   0.624850466001085   1.0000000
B2   B   0.888805030449797   0.777745522201763   0.624948012096242   1.0000000
B2   B   0.722147207691501   0.277776561363176   0.624850466001085   1.0000000
B2   B   0.055536497599709   0.777796835733626   0.125016128743814   1.0000000
B2   B   0.388940491751959   0.777745522201763   0.125051987903758   1.0000000
B2   B   0.222384834863672   0.277859084098507   0.125917685781771   1.0000000
B2   B   0.722147207691501   0.777703979661654   0.125149533998915   1.0000000
B2   B   0.555474249234828   0.277859084098507   0.125917685781771   1.0000000
B2   B   0.888880785801142   0.277761571602283   0.124998097416192   1.0000000
B2   B   0.055587811131573   0.444392841581369   0.624948012096242   1.0000000
B2   B   0.222288858104312   0.944577716208616   0.624860796272548   1.0000000
B2   B   0.555571761731053   0.944452547532187   0.625001902583808   1.0000000
B2   B   0.389026848166741   0.444306485166588   0.623161203163831   1.0000000
B2   B   0.888880785801142   0.944452547532187   0.625001902583808   1.0000000
B2   B   0.055587811131573   0.944528302883532   0.125051987903758   1.0000000
B2   B   0.722014132287955   0.444365241678280   0.624411013904585   1.0000000
B2   B   0.388940491751959   0.944528302883532   0.125051987903758   1.0000000
B2   B   0.222351109390326   0.444365241678280   0.125588986095415   1.0000000
B2   B   0.222288858104312   0.611044475229024   0.125139203727459   1.0000000
B2   B   0.555279636999833   0.444306485166588   0.126838796836169   1.0000000
B2   B   0.722212794884743   0.944425589769493   0.124997970330185   1.0000000
B2   B   0.888805030449797   0.444392841581369   0.125051987903758   1.0000000
B2   B   0.055536497599709   0.611072995199418   0.624983871256186   1.0000000
B2   B   0.222351109390326   0.111319201045381   0.624411013904585   1.0000000
B2   B   0.722014132287955   0.610982223943010   0.624411013904585   1.0000000
B2   B   0.555556771970160   0.111186125641834   0.624850466001085   1.0000000
B2   B   0.888907743563836   0.111120538448593   0.625002029669814   1.0000000


