data_1
_audit_creation_method   'vasp2cif'
_cell_length_a    14.93631414619966
_cell_length_b    14.936314146199727
_cell_length_c    13.341276283792837
_cell_angle_alpha    90.0
_cell_angle_beta    90.0
_cell_angle_gamma    119.99999999999984

_symmetry_space_group_name_H-M    'P 1'
loop_
_atom_site_label
_atom_site_type_symbol
_atom_site_fract_x
_atom_site_fract_y
_atom_site_fract_z
_atom_site_occupancy
N2   N   0.111099359664527   0.055563803670397   0.124919109707793   1.0000000
N2   N   0.611107923064984   0.555572057711347   0.125465420973769   1.0000000
N2   N   0.444464444005878   0.055563803670397   0.124919109707793   1.0000000
N2   N   0.944431408373757   0.555542244330752   0.124871736441363   1.0000000
N2   N   0.777777777777779   0.055555555555557   0.124833359794965   1.0000000
N2   N   0.111111111111114   0.722222222222221   0.625135370855373   1.0000000
N2   N   0.444464444005878   0.722233973668811   0.625080890292208   1.0000000
N2   N   0.277761275621988   0.222225410268352   0.624534579026230   1.0000000
N2   N   0.777769529662939   0.722233973668811   0.625080890292208   1.0000000
N2   N   0.611125378461268   0.222207954872069   0.625025164311398   1.0000000
N2   N   0.944427570504076   0.222208262488555   0.625170795262644   1.0000000
N2   N   0.277791089002584   0.722222497376340   0.124871736441363   1.0000000
N2   N   0.111082576410810   0.222207954872069   0.124974835688601   1.0000000
N2   N   0.444464134646363   0.222225410268352   0.125465420973769   1.0000000
N2   N   0.611125378461268   0.722250756922525   0.124974835688601   1.0000000
N2   N   0.944431408373757   0.722222497376340   0.124871736441363   1.0000000
N2   N   0.777780691984479   0.222208262488555   0.124829204737356   1.0000000
N2   N   0.111110835956995   0.888901924959572   0.625128263558637   1.0000000
N2   N   0.444461945075988   0.888897639204656   0.625168375042309   1.0000000
N2   N   0.277761275621988   0.388869198686966   0.624534579026230   1.0000000
N2   N   0.611107923064984   0.388869198686966   0.624534579026230   1.0000000
N2   N   0.777780691984479   0.888905762829252   0.625170795262644   1.0000000
N2   N   0.944435694128673   0.388871388257341   0.625168375042309   1.0000000
N2   N   0.111099359664527   0.388868889327451   0.124919109707793   1.0000000
N2   N   0.277791089002584   0.888901924959572   0.124871736441363   1.0000000
N2   N   0.611125070844781   0.888905762829252   0.124829204737356   1.0000000
N2   N   0.444444444444443   0.388888888888886   0.125184383132525   1.0000000
N2   N   0.944435694128673   0.888897639204656   0.124831624957692   1.0000000
N2   N   0.777769529662939   0.388868889327451   0.124919109707793   1.0000000
N2   N   0.277787578570512   0.555545754762824   0.624923112047526   1.0000000
N2   N   0.111099359664527   0.055563803670397   0.625080890292208   1.0000000
N2   N   0.611107923064984   0.555572057711347   0.624534579026230   1.0000000
N2   N   0.444464444005878   0.055563803670397   0.625080890292208   1.0000000
N2   N   0.944431408373757   0.555542244330752   0.625128263558637   1.0000000
N2   N   0.111110835956995   0.555542244330752   0.124871736441363   1.0000000
N2   N   0.777777777777779   0.055555555555557   0.625166640205034   1.0000000
N2   N   0.277787578570512   0.055575157141031   0.125076887952474   1.0000000
N2   N   0.444464134646363   0.555572057711347   0.125465420973769   1.0000000
N2   N   0.777758176192304   0.555545754762824   0.125076887952474   1.0000000
N2   N   0.611125070844781   0.055552641348856   0.124829204737356   1.0000000
N2   N   0.444464134646363   0.555572057711347   0.624534579026230   1.0000000
N2   N   0.944427570504076   0.055552641348856   0.124829204737356   1.0000000
N2   N   0.277791089002584   0.722222497376340   0.625128263558637   1.0000000
N2   N   0.111082576410810   0.222207954872069   0.625025164311398   1.0000000
N2   N   0.444464134646363   0.222225410268352   0.624534579026230   1.0000000
N2   N   0.611125378461268   0.722250756922525   0.625025164311398   1.0000000
N2   N   0.944431408373757   0.722222497376340   0.625128263558637   1.0000000
N2   N   0.777780691984479   0.222208262488555   0.625170795262644   1.0000000
N2   N   0.111111111111114   0.722222222222221   0.124864629144627   1.0000000
N2   N   0.444464444005878   0.722233973668811   0.124919109707793   1.0000000
N2   N   0.277761275621988   0.222225410268352   0.125465420973769   1.0000000
N2   N   0.777769529662939   0.722233973668811   0.124919109707793   1.0000000
N2   N   0.611125378461268   0.222207954872069   0.124974835688601   1.0000000
N2   N   0.944427570504076   0.222208262488555   0.124829204737356   1.0000000
N2   N   0.111099359664527   0.388868889327451   0.625080890292208   1.0000000
N2   N   0.277791089002584   0.888901924959572   0.625128263558637   1.0000000
N2   N   0.611125070844781   0.888905762829252   0.625170795262644   1.0000000
N2   N   0.444444444444443   0.388888888888886   0.624815616867475   1.0000000
N2   N   0.944435694128673   0.888897639204656   0.625168375042309   1.0000000
N2   N   0.111110835956995   0.888901924959572   0.124871736441363   1.0000000
N2   N   0.777769529662939   0.388868889327451   0.625080890292208   1.0000000
N2   N   0.444461945075988   0.888897639204656   0.124831624957692   1.0000000
N2   N   0.277761275621988   0.388869198686966   0.125465420973769   1.0000000
N2   N   0.277787578570512   0.555545754762824   0.125076887952474   1.0000000
N2   N   0.611107923064984   0.388869198686966   0.125465420973769   1.0000000
N2   N   0.777780691984479   0.888905762829252   0.124829204737356   1.0000000
N2   N   0.944435694128673   0.388871388257341   0.124831624957692   1.0000000
N2   N   0.111110835956995   0.555542244330752   0.625128263558637   1.0000000
N2   N   0.277787578570512   0.055575157141031   0.624923112047526   1.0000000
N2   N   0.777758176192304   0.555545754762824   0.624923112047526   1.0000000
N2   N   0.611125070844781   0.055552641348856   0.625170795262644   1.0000000
N2   N   0.944427570504076   0.055552641348856   0.625170795262644   1.0000000
N2   N   0.055128430112984   0.110794784349706   0.375000000000000   1.0000000
N2   N   0.556004337543257   0.612008675086515   0.375000000000000   1.0000000
N2   N   0.388790659870418   0.109767772999603   0.375000000000000   1.0000000
N2   N   0.889326048551613   0.611329690942481   0.375000000000000   1.0000000
N2   N   0.722282535681664   0.111050797651673   0.375000000000000   1.0000000
N2   N   0.055556559337724   0.777776773995612   0.875000000000000   1.0000000
N2   N   0.388884906724398   0.777777791880295   0.875000000000000   1.0000000
N2   N   0.222224185133266   0.277778759233297   0.875000000000000   1.0000000
N2   N   0.722224082973770   0.777776339062626   0.875000000000000   1.0000000
N2   N   0.555554574100038   0.277778759233297   0.875000000000000   1.0000000
N2   N   0.888891844113524   0.277783688227054   0.875000000000000   1.0000000
N2   N   0.222097553042569   0.777715443187948   0.375000000000000   1.0000000
N2   N   0.055128430112984   0.277666979096613   0.375000000000000   1.0000000
N2   N   0.385878394223361   0.271756788446729   0.375000000000000   1.0000000
N2   N   0.555666354236724   0.778204903220352   0.375000000000000   1.0000000
N2   N   0.889336679546405   0.778093585717176   0.375000000000000   1.0000000
N2   N   0.722538548983630   0.277666979096613   0.375000000000000   1.0000000
N2   N   0.055555541453040   0.944440448177446   0.875000000000000   1.0000000
N2   N   0.388884906724398   0.944440448177446   0.875000000000000   1.0000000
N2   N   0.222221854845792   0.444447303916160   0.875000000000000   1.0000000
N2   N   0.555558803296391   0.444446068314856   0.875000000000000   1.0000000
N2   N   0.722221300301918   0.944442600603843   0.875000000000000   1.0000000
N2   N   0.888892885155883   0.444448426608931   0.875000000000000   1.0000000
N2   N   0.055239747616159   0.444576427162564   0.375000000000000   1.0000000
N2   N   0.222003642390855   0.944007284781716   0.375000000000000   1.0000000
N2   N   0.555578813609068   0.944456073471196   0.375000000000000   1.0000000
N2   N   0.385878394223361   0.447454939109968   0.375000000000000   1.0000000
N2   N   0.888877259862133   0.944456073471196   0.375000000000000   1.0000000
N2   N   0.723565560333734   0.444542673462911   0.375000000000000   1.0000000
N2   N   0.222219219142303   0.611114114191031   0.875000000000000   1.0000000
N2   N   0.055556994270710   0.111109250359564   0.875000000000000   1.0000000
N2   N   0.555554574100038   0.611109148200070   0.875000000000000   1.0000000
N2   N   0.388886029417169   0.111107884262969   0.875000000000000   1.0000000
N2   N   0.888894895048715   0.611114114191031   0.875000000000000   1.0000000
N2   N   0.055617890145387   0.611235780290766   0.375000000000000   1.0000000
N2   N   0.722221300301918   0.111112033031417   0.875000000000000   1.0000000
N2   N   0.220977113129186   0.109767772999603   0.375000000000000   1.0000000
N2   N   0.388790659870418   0.612356220204149   0.375000000000000   1.0000000
N2   N   0.723565560333734   0.612356220204149   0.375000000000000   1.0000000
N2   N   0.555666354236724   0.110794784349706   0.375000000000000   1.0000000
N2   N   0.388886029417169   0.611111478487543   0.875000000000000   1.0000000
N2   N   0.888768261970003   0.111050797651673   0.375000000000000   1.0000000
N2   N   0.222220214657882   0.777776773995612   0.875000000000000   1.0000000
N2   N   0.055556994270710   0.277781077244481   0.875000000000000   1.0000000
N2   N   0.388887265018473   0.277774530036944   0.875000000000000   1.0000000
N2   N   0.555552256088855   0.777776339062626   0.875000000000000   1.0000000
N2   N   0.888892885155883   0.777777791880295   0.875000000000000   1.0000000
N2   N   0.722224082973770   0.277781077244481   0.875000000000000   1.0000000
N2   N   0.055617890145387   0.777715443187948   0.375000000000000   1.0000000
N2   N   0.388756906170765   0.778093585717176   0.375000000000000   1.0000000
N2   N   0.221324658246820   0.277328995790078   0.375000000000000   1.0000000
N2   N   0.722538548983630   0.778204903220352   0.375000000000000   1.0000000
N2   N   0.556004337543257   0.277328995790078   0.375000000000000   1.0000000
N2   N   0.888877259862133   0.277754519724267   0.375000000000000   1.0000000
N2   N   0.055555541453040   0.444448426608931   0.875000000000000   1.0000000
N2   N   0.222219219142303   0.944438438284613   0.875000000000000   1.0000000
N2   N   0.555549645106282   0.944441489219805   0.875000000000000   1.0000000
N2   N   0.388887265018473   0.444446068314856   0.875000000000000   1.0000000
N2   N   0.888891844113524   0.944441489219805   0.875000000000000   1.0000000
N2   N   0.055239747616159   0.943996653786924   0.375000000000000   1.0000000
N2   N   0.722225449070366   0.444447303916160   0.875000000000000   1.0000000
N2   N   0.388756906170765   0.943996653786924   0.375000000000000   1.0000000
N2   N   0.220977113129186   0.444542673462911   0.375000000000000   1.0000000
N2   N   0.222003642390855   0.611329690942481   0.375000000000000   1.0000000
N2   N   0.561576544886607   0.447454939109968   0.375000000000000   1.0000000
N2   N   0.722282535681664   0.944565071363326   0.375000000000000   1.0000000
N2   N   0.889336679546405   0.444576427162564   0.375000000000000   1.0000000
N2   N   0.055556559337724   0.611113118675452   0.875000000000000   1.0000000
N2   N   0.222221854845792   0.111107884262969   0.875000000000000   1.0000000
N2   N   0.722225449070366   0.611111478487543   0.875000000000000   1.0000000
N2   N   0.555552256088855   0.111109250359564   0.875000000000000   1.0000000
N2   N   0.888890732729486   0.111112033031417   0.875000000000000   1.0000000
B2   B   0.110808962181721   0.055176389671353   0.375000000000000   1.0000000
B2   B   0.610873331634370   0.555017989157334   0.375000000000000   1.0000000
B2   B   0.444367427489632   0.055176389671353   0.375000000000000   1.0000000
B2   B   0.944545536517459   0.555630655154303   0.375000000000000   1.0000000
B2   B   0.777777777777779   0.055555555555557   0.375000000000000   1.0000000
B2   B   0.111111111111114   0.722222222222221   0.875000000000000   1.0000000
B2   B   0.444431000245665   0.722178744975748   0.875000000000000   1.0000000
B2   B   0.277833180433985   0.222268263451973   0.875000000000000   1.0000000
B2   B   0.777747744730082   0.722178744975748   0.875000000000000   1.0000000
B2   B   0.611079203059491   0.222254130273845   0.875000000000000   1.0000000
B2   B   0.944473359982123   0.222242302452144   0.875000000000000   1.0000000
B2   B   0.277702678179034   0.722248214696491   0.375000000000000   1.0000000
B2   B   0.111270709670493   0.222302021501907   0.375000000000000   1.0000000
B2   B   0.444144657522971   0.222460001698965   0.375000000000000   1.0000000
B2   B   0.611031311831430   0.722062623662844   0.375000000000000   1.0000000
B2   B   0.944545536517459   0.722248214696491   0.375000000000000   1.0000000
B2   B   0.777786710591000   0.222234277153224   0.375000000000000   1.0000000
B2   B   0.111122942792095   0.888901547394823   0.875000000000000   1.0000000
B2   B   0.444429063060377   0.888881198196851   0.875000000000000   1.0000000
B2   B   0.277833180433985   0.388898250315340   0.875000000000000   1.0000000
B2   B   0.611065069881361   0.388898250315340   0.875000000000000   1.0000000
B2   B   0.777768942470019   0.888859973351205   0.875000000000000   1.0000000
B2   B   0.944452135136478   0.388904270272951   0.875000000000000   1.0000000
B2   B   0.110808962181721   0.388965905843696   0.375000000000000   1.0000000
B2   B   0.277702678179034   0.888787796815870   0.375000000000000   1.0000000
B2   B   0.611099056180113   0.888885766771105   0.375000000000000   1.0000000
B2   B   0.944469666939671   0.888863666393657   0.375000000000000   1.0000000
B2   B   0.778156943661982   0.388965905843696   0.375000000000000   1.0000000
B2   B   0.277797551310312   0.555535782023023   0.875000000000000   1.0000000
B2   B   0.111154588357589   0.055585588603253   0.875000000000000   1.0000000
B2   B   0.611065069881361   0.555500152899353   0.875000000000000   1.0000000
B2   B   0.444431000245665   0.055585588603253   0.875000000000000   1.0000000
B2   B   0.944431785938505   0.555554728730608   0.875000000000000   1.0000000
B2   B   0.111085118636844   0.555630655154303   0.375000000000000   1.0000000
B2   B   0.777777777777779   0.055555555555557   0.875000000000000   1.0000000
B2   B   0.277743920571400   0.055487841142802   0.375000000000000   1.0000000
B2   B   0.444144657522971   0.555017989157334   0.375000000000000   1.0000000
B2   B   0.777845492190535   0.555589412761934   0.375000000000000   1.0000000
B2   B   0.611099056180113   0.055546622742336   0.375000000000000   1.0000000
B2   B   0.444435083017989   0.555500152899353   0.875000000000000   1.0000000
B2   B   0.944447566562224   0.055546622742336   0.375000000000000   1.0000000
B2   B   0.277778604602728   0.722210390541241   0.875000000000000   1.0000000
B2   B   0.111174927214362   0.222254130273845   0.875000000000000   1.0000000
B2   B   0.444435083017989   0.222268263451973   0.875000000000000   1.0000000
B2   B   0.611079203059491   0.722158406118974   0.875000000000000   1.0000000
B2   B   0.944431785938505   0.722210390541241   0.875000000000000   1.0000000
B2   B   0.777768942470019   0.222242302452144   0.875000000000000   1.0000000
B2   B   0.111111111111114   0.722222222222221   0.375000000000000   1.0000000
B2   B   0.444367427489632   0.722524371151614   0.375000000000000   1.0000000
B2   B   0.278315344176003   0.222460001698965   0.375000000000000   1.0000000
B2   B   0.778156943661982   0.722524371151614   0.375000000000000   1.0000000
B2   B   0.611031311831430   0.222302021501907   0.375000000000000   1.0000000
B2   B   0.944447566562224   0.222234277153224   0.375000000000000   1.0000000
B2   B   0.111154588357589   0.388902333087664   0.875000000000000   1.0000000
B2   B   0.277778604602728   0.888901547394823   0.875000000000000   1.0000000
B2   B   0.611091030881191   0.888859973351205   0.875000000000000   1.0000000
B2   B   0.444444444444443   0.388888888888886   0.875000000000000   1.0000000
B2   B   0.944452135136478   0.888881198196851   0.875000000000000   1.0000000
B2   B   0.111085118636844   0.888787796815870   0.375000000000000   1.0000000
B2   B   0.777747744730082   0.388902333087664   0.875000000000000   1.0000000
B2   B   0.444393999453990   0.888863666393657   0.375000000000000   1.0000000
B2   B   0.278315344176003   0.389188675810358   0.375000000000000   1.0000000
B2   B   0.277743920571400   0.555589412761934   0.375000000000000   1.0000000
B2   B   0.610873331634370   0.389188675810358   0.375000000000000   1.0000000
B2   B   0.777786710591000   0.888885766771105   0.375000000000000   1.0000000
B2   B   0.944469666939671   0.388939333879338   0.375000000000000   1.0000000
B2   B   0.111122942792095   0.555554728730608   0.875000000000000   1.0000000
B2   B   0.277797551310312   0.055595102620625   0.875000000000000   1.0000000
B2   B   0.777738230712712   0.555535782023023   0.875000000000000   1.0000000
B2   B   0.611091030881191   0.055564390863316   0.875000000000000   1.0000000
B2   B   0.944473359982123   0.055564390863316   0.875000000000000   1.0000000
B2   B   0.055627732875339   0.111185504886105   0.125134048668390   1.0000000
B2   B   0.555474382078296   0.610948764156594   0.125821736551545   1.0000000
B2   B   0.388970412675574   0.111323518059541   0.125538172263145   1.0000000
B2   B   0.888753531159570   0.611043432246452   0.125130576158570   1.0000000
B2   B   0.722213120690533   0.111120212642802   0.124998050787090   1.0000000
B2   B   0.055536022174671   0.777797311158665   0.624978460603158   1.0000000
B2   B   0.388941091764158   0.777745085875265   0.624945894234446   1.0000000
B2   B   0.222384569176739   0.277858951255042   0.624178263448452   1.0000000
B2   B   0.722147828447233   0.777705600457995   0.624865951331610   1.0000000
B2   B   0.555474382078296   0.277858951255042   0.624178263448452   1.0000000
B2   B   0.888880359373489   0.277760718746976   0.625001120995572   1.0000000
B2   B   0.222261288983993   0.777797311158665   0.125021539396841   1.0000000
B2   B   0.055627732875339   0.277775561322570   0.125134048668390   1.0000000
B2   B   0.389022756288421   0.278045512576856   0.126746317629097   1.0000000
B2   B   0.555557772010765   0.777705600457995   0.125134048668390   1.0000000
B2   B   0.888803994111100   0.777745085875265   0.125054105765555   1.0000000
B2   B   0.722147828447233   0.277775561322570   0.125134048668390   1.0000000
B2   B   0.055588247458070   0.944529339222229   0.624945894234446   1.0000000
B2   B   0.388941091764158   0.944529339222229   0.624945894234446   1.0000000
B2   B   0.222353105383960   0.444362920657755   0.624461827736857   1.0000000
B2   B   0.555287820756479   0.444310577044907   0.623253682370902   1.0000000
B2   B   0.722213120690533   0.944426241381070   0.625001949212909   1.0000000
B2   B   0.888803994111100   0.444392241569170   0.624945894234446   1.0000000
B2   B   0.055588247458070   0.444392241569170   0.125054105765555   1.0000000
B2   B   0.222289901086883   0.944579802173759   0.125130576158570   1.0000000
B2   B   0.555572614586359   0.944452973959840   0.124998879004430   1.0000000
B2   B   0.389022756288421   0.444310577044907   0.126746317629097   1.0000000
B2   B   0.888880359373489   0.944452973959840   0.124998879004430   1.0000000
B2   B   0.722009815273795   0.444362920657755   0.125538172263145   1.0000000
B2   B   0.222289901086883   0.611043432246452   0.624869423841437   1.0000000
B2   B   0.055627732875339   0.111185504886105   0.624865951331610   1.0000000
B2   B   0.555474382078296   0.610948764156594   0.624178263448452   1.0000000
B2   B   0.388970412675574   0.111323518059541   0.624461827736857   1.0000000
B2   B   0.888753531159570   0.611043432246452   0.624869423841437   1.0000000
B2   B   0.055536022174671   0.611072044349344   0.125021539396841   1.0000000
B2   B   0.722213120690533   0.111120212642802   0.625001949212909   1.0000000
B2   B   0.222353105383960   0.111323518059541   0.125538172263145   1.0000000
B2   B   0.388970412675574   0.610980227949376   0.125538172263145   1.0000000
B2   B   0.722009815273795   0.610980227949376   0.125538172263145   1.0000000
B2   B   0.555557772010765   0.111185504886105   0.125134048668390   1.0000000
B2   B   0.388970412675574   0.610980227949376   0.624461827736857   1.0000000
B2   B   0.888907091952259   0.111120212642802   0.124998050787090   1.0000000
B2   B   0.222261288983993   0.777797311158665   0.624978460603158   1.0000000
B2   B   0.055627732875339   0.277775561322570   0.624865951331610   1.0000000
B2   B   0.389022756288421   0.278045512576856   0.623253682370902   1.0000000
B2   B   0.555557772010765   0.777705600457995   0.624865951331610   1.0000000
B2   B   0.888803994111100   0.777745085875265   0.624945894234446   1.0000000
B2   B   0.722147828447233   0.277775561322570   0.624865951331610   1.0000000
B2   B   0.055536022174671   0.777797311158665   0.125021539396841   1.0000000
B2   B   0.388941091764158   0.777745085875265   0.125054105765555   1.0000000
B2   B   0.222384569176739   0.277858951255042   0.125821736551545   1.0000000
B2   B   0.722147828447233   0.777705600457995   0.125134048668390   1.0000000
B2   B   0.555474382078296   0.277858951255042   0.125821736551545   1.0000000
B2   B   0.888880359373489   0.277760718746976   0.124998879004430   1.0000000
B2   B   0.055588247458070   0.444392241569170   0.624945894234446   1.0000000
B2   B   0.222289901086883   0.944579802173759   0.624869423841437   1.0000000
B2   B   0.555572614586359   0.944452973959840   0.625001120995572   1.0000000
B2   B   0.389022756288421   0.444310577044907   0.623253682370902   1.0000000
B2   B   0.888880359373489   0.944452973959840   0.625001120995572   1.0000000
B2   B   0.055588247458070   0.944529339222229   0.125054105765555   1.0000000
B2   B   0.722009815273795   0.444362920657755   0.624461827736857   1.0000000
B2   B   0.388941091764158   0.944529339222229   0.125054105765555   1.0000000
B2   B   0.222353105383960   0.444362920657755   0.125538172263145   1.0000000
B2   B   0.222289901086883   0.611043432246452   0.125130576158570   1.0000000
B2   B   0.555287820756479   0.444310577044907   0.126746317629097   1.0000000
B2   B   0.722213120690533   0.944426241381070   0.124998050787090   1.0000000
B2   B   0.888803994111100   0.444392241569170   0.125054105765555   1.0000000
B2   B   0.055536022174671   0.611072044349344   0.624978460603158   1.0000000
B2   B   0.222353105383960   0.111323518059541   0.624461827736857   1.0000000
B2   B   0.722009815273795   0.610980227949376   0.624461827736857   1.0000000
B2   B   0.555557772010765   0.111185504886105   0.624865951331610   1.0000000
B2   B   0.888907091952259   0.111120212642802   0.625001949212909   1.0000000


