data_1
_audit_creation_method   'vasp2cif'
_cell_length_a    14.93631414619966
_cell_length_b    14.936314146199727
_cell_length_c    13.341276283792837
_cell_angle_alpha    90.0
_cell_angle_beta    90.0
_cell_angle_gamma    119.99999999999984

_symmetry_space_group_name_H-M    'P 1'
loop_
_atom_site_label
_atom_site_type_symbol
_atom_site_fract_x
_atom_site_fract_y
_atom_site_fract_z
_atom_site_occupancy
C2   C   0.439694064058036   0.386513698695679   0.375000000000000   1.0000000
O2   O   0.546358118233095   0.439845725783216   0.375000000000000   1.0000000
N2   N   0.111033378656102   0.055497313199407   0.125193405553759   1.0000000
N2   N   0.610945721758787   0.555426709927016   0.125399727654241   1.0000000
N2   N   0.444372133193746   0.055527915079544   0.125202691316820   1.0000000
N2   N   0.944367768297631   0.555524998877822   0.125111120124833   1.0000000
N2   N   0.777716012031099   0.055524672682217   0.125115180894557   1.0000000
N2   N   0.111044159749832   0.722188746541577   0.624875152818451   1.0000000
N2   N   0.444372133193746   0.722177551447537   0.624797308683181   1.0000000
N2   N   0.277696757511497   0.222177222240203   0.624385124514497   1.0000000
N2   N   0.777686878852018   0.722138354651069   0.624586095019140   1.0000000
N2   N   0.611022283012906   0.222218192248198   0.624599276243595   1.0000000
N2   N   0.944383168943042   0.222206274114887   0.624859664285971   1.0000000
N2   N   0.277712560167607   0.722193990173709   0.125157685771970   1.0000000
N2   N   0.111046495249048   0.222189914291188   0.125255210115138   1.0000000
N2   N   0.444311858246974   0.222179731243987   0.125510858330947   1.0000000
N2   N   0.611022283012906   0.722137424098043   0.125400723756404   1.0000000
N2   N   0.944367768297631   0.722176102753151   0.125111120124833   1.0000000
N2   N   0.777709750710388   0.222221359879049   0.125177914165391   1.0000000
N2   N   0.111034730015691   0.888834368834210   0.624866354371160   1.0000000
N2   N   0.444382593690871   0.888857963512100   0.624877638129726   1.0000000
N2   N   0.277696757511497   0.388852868604623   0.624385124514497   1.0000000
N2   N   0.610945721758787   0.388852345165100   0.624600272345759   1.0000000
N2   N   0.777709750710388   0.888821724164676   0.624822085834610   1.0000000
N2   N   0.944374890964437   0.388882237918333   0.624844533385080   1.0000000
N2   N   0.111033378656102   0.388869398790024   0.125193405553759   1.0000000
N2   N   0.277712560167607   0.888851903327226   0.125157685771970   1.0000000
N2   N   0.611042578456882   0.888838114217106   0.125147945865249   1.0000000
N2   N   0.444355862728977   0.388844598031153   0.126278824803076   1.0000000
N2   N   0.944374890964437   0.888825986379432   0.125155466614927   1.0000000
N2   N   0.777686878852018   0.388881857534277   0.125413904980861   1.0000000
N2   N   0.277684107247294   0.555516241001593   0.624746897549514   1.0000000
N2   N   0.111033378656102   0.055497313199407   0.624806594446241   1.0000000
N2   N   0.610945721758787   0.555426709927016   0.624600272345759   1.0000000
N2   N   0.444372133193746   0.055527915079544   0.624797308683181   1.0000000
N2   N   0.944367768297631   0.555524998877822   0.624888879875168   1.0000000
N2   N   0.111034730015691   0.555533694514817   0.125133645628841   1.0000000
N2   N   0.777716012031099   0.055524672682217   0.624884819105444   1.0000000
N2   N   0.277684107247294   0.055501199579037   0.125253102450486   1.0000000
N2   N   0.444311858246974   0.555465460336329   0.125510858330947   1.0000000
N2   N   0.777670620674099   0.555501977003717   0.125057641121038   1.0000000
N2   N   0.611042578456882   0.055537797573105   0.125147945865249   1.0000000
N2   N   0.444311858246974   0.555465460336329   0.624489141669053   1.0000000
N2   N   0.944383168943042   0.055510228161491   0.125140335714029   1.0000000
N2   N   0.277712560167607   0.722193990173709   0.624842314228030   1.0000000
N2   N   0.111046495249048   0.222189914291188   0.624744789884862   1.0000000
N2   N   0.444311858246974   0.222179731243987   0.624489141669053   1.0000000
N2   N   0.611022283012906   0.722137424098043   0.624599276243595   1.0000000
N2   N   0.944367768297631   0.722176102753151   0.624888879875168   1.0000000
N2   N   0.777709750710388   0.222221359879049   0.624822085834610   1.0000000
N2   N   0.111044159749832   0.722188746541577   0.125124847181549   1.0000000
N2   N   0.444372133193746   0.722177551447537   0.125202691316820   1.0000000
N2   N   0.277696757511497   0.222177222240203   0.125614875485504   1.0000000
N2   N   0.777686878852018   0.722138354651069   0.125413904980861   1.0000000
N2   N   0.611022283012906   0.222218192248198   0.125400723756404   1.0000000
N2   N   0.944383168943042   0.222206274114887   0.125140335714029   1.0000000
N2   N   0.111033378656102   0.388869398790024   0.624806594446241   1.0000000
N2   N   0.277712560167607   0.888851903327226   0.624842314228030   1.0000000
N2   N   0.611042578456882   0.888838114217106   0.624852054134757   1.0000000
N2   N   0.444355862728977   0.388844598031153   0.623721175196923   1.0000000
N2   N   0.944374890964437   0.888825986379432   0.624844533385080   1.0000000
N2   N   0.111034730015691   0.888834368834210   0.125133645628841   1.0000000
N2   N   0.777686878852018   0.388881857534277   0.624586095019140   1.0000000
N2   N   0.444382593690871   0.888857963512100   0.125122361870274   1.0000000
N2   N   0.277696757511497   0.388852868604623   0.125614875485504   1.0000000
N2   N   0.277684107247294   0.555516241001593   0.125253102450486   1.0000000
N2   N   0.610945721758787   0.388852345165100   0.125399727654241   1.0000000
N2   N   0.777709750710388   0.888821724164676   0.125177914165391   1.0000000
N2   N   0.944374890964437   0.388882237918333   0.125155466614927   1.0000000
N2   N   0.111034730015691   0.555533694514817   0.624866354371160   1.0000000
N2   N   0.277684107247294   0.055501199579037   0.624746897549514   1.0000000
N2   N   0.777670620674099   0.555501977003717   0.624942358878961   1.0000000
N2   N   0.611042578456882   0.055537797573105   0.624852054134757   1.0000000
N2   N   0.944383168943042   0.055510228161491   0.624859664285971   1.0000000
N2   N   0.055430127661696   0.111032402485136   0.375000000000000   1.0000000
N2   N   0.555150876309323   0.610661440003201   0.375000000000000   1.0000000
N2   N   0.389207487415032   0.112729648093675   0.375000000000000   1.0000000
N2   N   0.890411688811523   0.611872511072433   0.375000000000000   1.0000000
N2   N   0.722209962484718   0.111277457958936   0.375000000000000   1.0000000
N2   N   0.055550321670856   0.777778280014909   0.875000000000000   1.0000000
N2   N   0.388895023075391   0.777780618217582   0.875000000000000   1.0000000
N2   N   0.222218821279189   0.277776077306259   0.875000000000000   1.0000000
N2   N   0.722219031282296   0.777780506327624   0.875000000000000   1.0000000
N2   N   0.555552480074178   0.277773590220040   0.875000000000000   1.0000000
N2   N   0.888885916651004   0.277773892125373   0.875000000000000   1.0000000
N2   N   0.223074599939889   0.778203966636612   0.375000000000000   1.0000000
N2   N   0.055430127661696   0.277731058509889   0.375000000000000   1.0000000
N2   N   0.391571893491256   0.283983118835735   0.375000000000000   1.0000000
N2   N   0.555565812497616   0.777514252772292   0.375000000000000   1.0000000
N2   N   0.888902203227811   0.777361459154968   0.375000000000000   1.0000000
N2   N   0.722156437720536   0.278290305935844   0.375000000000000   1.0000000
N2   N   0.055550973155487   0.944446397329790   0.875000000000000   1.0000000
N2   N   0.388895023075391   0.944447738191145   0.875000000000000   1.0000000
N2   N   0.222220928637539   0.444439506839015   0.875000000000000   1.0000000
N2   N   0.555546933489972   0.444440133411654   0.875000000000000   1.0000000
N2   N   0.722219686546162   0.944444951134401   0.875000000000000   1.0000000
N2   N   0.888882250391299   0.444436335908071   0.875000000000000   1.0000000
N2   N   0.056026633501928   0.444397941719065   0.375000000000000   1.0000000
N2   N   0.222955311180545   0.945384195306321   0.375000000000000   1.0000000
N2   N   0.555702287045754   0.944517810189537   0.375000000000000   1.0000000
N2   N   0.391571893491256   0.440922107988857   0.375000000000000   1.0000000
N2   N   0.888818859412954   0.944193544820128   0.375000000000000   1.0000000
N2   N   0.721390501826385   0.445521960474545   0.375000000000000   1.0000000
N2   N   0.222222686843989   0.611107105182685   0.875000000000000   1.0000000
N2   N   0.055549535270085   0.111109373802346   0.875000000000000   1.0000000
N2   N   0.555552480074178   0.611112223187474   0.875000000000000   1.0000000
N2   N   0.388893066146258   0.111114505542842   0.875000000000000   1.0000000
N2   N   0.888880146295991   0.611106739814666   0.875000000000000   1.0000000
N2   N   0.056620433293988   0.611474832587246   0.375000000000000   1.0000000
N2   N   0.722219686546162   0.111108068745089   0.875000000000000   1.0000000
N2   N   0.223533944925461   0.112882270318636   0.375000000000000   1.0000000
N2   N   0.389207487415032   0.609811172654700   0.375000000000000   1.0000000
N2   N   0.721390501826385   0.609201874685175   0.375000000000000   1.0000000
N2   N   0.555565812497616   0.111384893058659   0.375000000000000   1.0000000
N2   N   0.388893066146258   0.611111893936758   0.875000000000000   1.0000000
N2   N   0.888791907396726   0.111062620365035   0.375000000000000   1.0000000
N2   N   0.222224055030632   0.777778694181984   0.875000000000000   1.0000000
N2   N   0.055549535270085   0.277773494801075   0.875000000000000   1.0000000
N2   N   0.388890591065892   0.277781940897321   0.875000000000000   1.0000000
N2   N   0.555557772513967   0.777781022093216   0.875000000000000   1.0000000
N2   N   0.888882250391299   0.777779247816564   0.875000000000000   1.0000000
N2   N   0.722219031282296   0.277771858288007   0.875000000000000   1.0000000
N2   N   0.056620433293988   0.778478934040079   0.375000000000000   1.0000000
N2   N   0.389328513188691   0.777626655879881   0.375000000000000   1.0000000
N2   N   0.221741910260365   0.277537621796847   0.375000000000000   1.0000000
N2   N   0.722156437720536   0.777199465118026   0.375000000000000   1.0000000
N2   N   0.555150876309323   0.277822769639464   0.375000000000000   1.0000000
N2   N   0.888818859412954   0.277958647926163   0.375000000000000   1.0000000
N2   N   0.055550973155487   0.444437909159018   0.875000000000000   1.0000000
N2   N   0.222222686843989   0.944448914994640   0.875000000000000   1.0000000
N2   N   0.555557107740420   0.944445220536875   0.875000000000000   1.0000000
N2   N   0.388890591065892   0.444441983501906   0.875000000000000   1.0000000
N2   N   0.888885916651004   0.944445357858967   0.875000000000000   1.0000000
N2   N   0.056026633501928   0.944962025116184   0.375000000000000   1.0000000
N2   N   0.722210737467556   0.444435122096364   0.875000000000000   1.0000000
N2   N   0.389328513188691   0.945035190642145   0.375000000000000   1.0000000
N2   N   0.223533944925461   0.443985007940161   0.375000000000000   1.0000000
N2   N   0.222955311180545   0.610904449207567   0.375000000000000   1.0000000
N2   N   0.722209962484718   0.944265837859117   0.375000000000000   1.0000000
N2   N   0.888902203227811   0.444874077406178   0.375000000000000   1.0000000
N2   N   0.055550321670856   0.611105374989281   0.875000000000000   1.0000000
N2   N   0.222220928637539   0.111114755131861   0.875000000000000   1.0000000
N2   N   0.722210737467556   0.611108948704521   0.875000000000000   1.0000000
N2   N   0.555557772513967   0.111110083754080   0.875000000000000   1.0000000
N2   N   0.888885091672613   0.111109212502978   0.875000000000000   1.0000000
B2   B   0.111122931777906   0.055779941775580   0.375000000000000   1.0000000
B2   B   0.613404790563546   0.560617671242551   0.375000000000000   1.0000000
B2   B   0.444576174827263   0.055892856980305   0.375000000000000   1.0000000
B2   B   0.945545683708635   0.556438161852831   0.375000000000000   1.0000000
B2   B   0.777668728462071   0.055501030897703   0.375000000000000   1.0000000
B2   B   0.111101066467853   0.722217199900587   0.875000000000000   1.0000000
B2   B   0.444456203110796   0.722263042616452   0.875000000000000   1.0000000
B2   B   0.277733749883112   0.222180871076108   0.875000000000000   1.0000000
B2   B   0.777802523799405   0.722253075012983   0.875000000000000   1.0000000
B2   B   0.611139763788494   0.222196004434670   0.875000000000000   1.0000000
B2   B   0.944410315344836   0.222205886572136   0.875000000000000   1.0000000
B2   B   0.278261015350295   0.722344258239357   0.375000000000000   1.0000000
B2   B   0.109400448711144   0.221366891022236   0.375000000000000   1.0000000
B2   B   0.446412768820799   0.222626929456346   0.375000000000000   1.0000000
B2   B   0.611684135888137   0.723324709478680   0.375000000000000   1.0000000
B2   B   0.945545683708635   0.722440855189132   0.375000000000000   1.0000000
B2   B   0.777859193806281   0.222353389120679   0.375000000000000   1.0000000
B2   B   0.111091542862064   0.888867018216605   0.875000000000000   1.0000000
B2   B   0.444454099206692   0.888893716270014   0.875000000000000   1.0000000
B2   B   0.277733749883112   0.388886212140332   0.875000000000000   1.0000000
B2   B   0.611154657035641   0.388884709790756   0.875000000000000   1.0000000
B2   B   0.777784079057370   0.888908603735125   0.875000000000000   1.0000000
B2   B   0.944431336484841   0.388882920279941   0.875000000000000   1.0000000
B2   B   0.111122931777906   0.388676323335655   0.375000000000000   1.0000000
B2   B   0.278261015350295   0.889250090444266   0.375000000000000   1.0000000
B2   B   0.611254524373728   0.889093249511705   0.375000000000000   1.0000000
B2   B   0.944562147459489   0.888759146267929   0.375000000000000   1.0000000
B2   B   0.778133269747013   0.389489148664824   0.375000000000000   1.0000000
B2   B   0.277759013137298   0.555578378192464   0.875000000000000   1.0000000
B2   B   0.111066013108991   0.055516984430408   0.875000000000000   1.0000000
B2   B   0.611154657035641   0.555603280578220   0.875000000000000   1.0000000
B2   B   0.444456203110796   0.055526493827679   0.875000000000000   1.0000000
B2   B   0.944447830900275   0.555557425529341   0.875000000000000   1.0000000
B2   B   0.111690474247909   0.555756021959417   0.375000000000000   1.0000000
B2   B   0.777771428454544   0.055552380893936   0.875000000000000   1.0000000
B2   B   0.278199809950991   0.055900657002924   0.375000000000000   1.0000000
B2   B   0.446412768820799   0.557119172697781   0.375000000000000   1.0000000
B2   B   0.779626559580697   0.556479946457020   0.375000000000000   1.0000000
B2   B   0.611254524373728   0.055494608195351   0.375000000000000   1.0000000
B2   B   0.444456568997835   0.555606809894511   0.875000000000000   1.0000000
B2   B   0.943937995689598   0.055182072426108   0.375000000000000   1.0000000
B2   B   0.277773702464401   0.722233483016670   0.875000000000000   1.0000000
B2   B   0.111047537420160   0.222190435376748   0.875000000000000   1.0000000
B2   B   0.444456568997835   0.222183092436660   0.875000000000000   1.0000000
B2   B   0.611139763788494   0.722277092687152   0.875000000000000   1.0000000
B2   B   0.944447830900275   0.722223738704270   0.875000000000000   1.0000000
B2   B   0.777784079057370   0.222208808655572   0.875000000000000   1.0000000
B2   B   0.111913680515797   0.722623506924566   0.375000000000000   1.0000000
B2   B   0.444576174827263   0.722016651180300   0.375000000000000   1.0000000
B2   B   0.276101126969367   0.222549610288449   0.375000000000000   1.0000000
B2   B   0.778133269747013   0.721977454415511   0.375000000000000   1.0000000
B2   B   0.611684135888137   0.221692759742785   0.375000000000000   1.0000000
B2   B   0.943937995689598   0.222089256596832   0.375000000000000   1.0000000
B2   B   0.111066013108991   0.388882362011911   0.875000000000000   1.0000000
B2   B   0.277773702464401   0.888873552781059   0.875000000000000   1.0000000
B2   B   0.611124442466634   0.888912641063499   0.875000000000000   1.0000000
B2   B   0.444453806619466   0.388893569976394   0.875000000000000   1.0000000
B2   B   0.944431336484841   0.888881749538228   0.875000000000000   1.0000000
B2   B   0.111690474247909   0.889267785621827   0.375000000000000   1.0000000
B2   B   0.777802523799405   0.388882782119751   0.875000000000000   1.0000000
B2   B   0.444660317951924   0.888996825642627   0.375000000000000   1.0000000
B2   B   0.276101126969367   0.386884850014247   0.375000000000000   1.0000000
B2   B   0.278199809950991   0.555632486281411   0.375000000000000   1.0000000
B2   B   0.613404790563546   0.386120452654323   0.375000000000000   1.0000000
B2   B   0.777859193806281   0.888839138018930   0.375000000000000   1.0000000
B2   B   0.944562147459489   0.389136334524887   0.375000000000000   1.0000000
B2   B   0.111091542862064   0.555557857978788   0.875000000000000   1.0000000
B2   B   0.277759013137298   0.055513968278176   0.875000000000000   1.0000000
B2   B   0.777812145146789   0.555572739240059   0.875000000000000   1.0000000
B2   B   0.611124442466634   0.055545134736464   0.875000000000000   1.0000000
B2   B   0.944410315344836   0.055537762106035   0.875000000000000   1.0000000
B2   B   0.055393044055174   0.110969736153062   0.124891671380716   1.0000000
B2   B   0.555534909016346   0.611184606313393   0.124964428752072   1.0000000
B2   B   0.388731837035507   0.110874119550895   0.124943260267372   1.0000000
B2   B   0.888890268145435   0.611111800739389   0.125059905464986   1.0000000
B2   B   0.722177134234910   0.111092077754272   0.124931513675027   1.0000000
B2   B   0.055464292484411   0.777687361887889   0.625007271998601   1.0000000
B2   B   0.388780728822710   0.777777148277322   0.625052143911534   1.0000000
B2   B   0.221978258290835   0.277655795812082   0.625140554149347   1.0000000
B2   B   0.722224413608239   0.777761935847870   0.624956393935973   1.0000000
B2   B   0.555534909016346   0.277683636036289   0.625035571247929   1.0000000
B2   B   0.888827619260590   0.277797123962159   0.625053662392150   1.0000000
B2   B   0.222102295580363   0.777717814456850   0.124969357089881   1.0000000
B2   B   0.055393044055174   0.277756641235448   0.124891671380716   1.0000000
B2   B   0.388719726519806   0.277563388148304   0.124752057061609   1.0000000
B2   B   0.555490021953339   0.777797102287835   0.124967668548803   1.0000000
B2   B   0.888875695064266   0.777712284029450   0.125046766533223   1.0000000
B2   B   0.722224413608239   0.277795811093704   0.125043606064020   1.0000000
B2   B   0.055430286015808   0.944284914374641   0.625062442518742   1.0000000
B2   B   0.388780728822710   0.944336913878732   0.625052143911534   1.0000000
B2   B   0.222005825191846   0.444489181886165   0.625108131908498   1.0000000
B2   B   0.555629119828401   0.444481226580865   0.625637708100099   1.0000000
B2   B   0.722177134234910   0.944418389813973   0.625068486324972   1.0000000
B2   B   0.888875695064266   0.444496744368152   0.624953233466777   1.0000000
B2   B   0.055430286015808   0.444478704974497   0.124937557481258   1.0000000
B2   B   0.222068650688915   0.944257043044856   0.124953045807523   1.0000000
B2   B   0.555485767844103   0.944409550588716   0.124926640304625   1.0000000
B2   B   0.388719726519806   0.444489671704844   0.124752057061609   1.0000000
B2   B   0.888827619260590   0.944363828631767   0.124946337607851   1.0000000
B2   B   0.722321358456221   0.444520928699262   0.125078629954848   1.0000000
B2   B   0.222068650688915   0.611144940977388   0.625046954192478   1.0000000
B2   B   0.055393044055174   0.110969736153062   0.625108328619284   1.0000000
B2   B   0.555534909016346   0.611184606313393   0.625035571247929   1.0000000
B2   B   0.388731837035507   0.110874119550895   0.625056739732628   1.0000000
B2   B   0.888890268145435   0.611111800739389   0.624940094535014   1.0000000
B2   B   0.055464292484411   0.611110263929865   0.124992728001398   1.0000000
B2   B   0.722177134234910   0.111092077754272   0.625068486324972   1.0000000
B2   B   0.222005825191846   0.110849976639024   0.124891868091502   1.0000000
B2   B   0.388731837035507   0.611191050817955   0.124943260267372   1.0000000
B2   B   0.722321358456221   0.611133763090295   0.125078629954848   1.0000000
B2   B   0.555490021953339   0.111026252998839   0.124967668548803   1.0000000
B2   B   0.388731837035507   0.611191050817955   0.625056739732628   1.0000000
B2   B   0.888804269852216   0.111068801592779   0.124921379981664   1.0000000
B2   B   0.222102295580363   0.777717814456850   0.625030642910119   1.0000000
B2   B   0.055393044055174   0.277756641235448   0.625108328619284   1.0000000
B2   B   0.388719726519806   0.277563388148304   0.625247942938390   1.0000000
B2   B   0.555490021953339   0.777797102287835   0.625032331451204   1.0000000
B2   B   0.888875695064266   0.777712284029450   0.624953233466777   1.0000000
B2   B   0.722224413608239   0.277795811093704   0.624956393935973   1.0000000
B2   B   0.055464292484411   0.777687361887889   0.124992728001398   1.0000000
B2   B   0.388780728822710   0.777777148277322   0.124947856088465   1.0000000
B2   B   0.221978258290835   0.277655795812082   0.124859445850653   1.0000000
B2   B   0.722224413608239   0.777761935847870   0.125043606064020   1.0000000
B2   B   0.555534909016346   0.277683636036289   0.124964428752072   1.0000000
B2   B   0.888827619260590   0.277797123962159   0.124946337607851   1.0000000
B2   B   0.055430286015808   0.444478704974497   0.625062442518742   1.0000000
B2   B   0.222068650688915   0.944257043044856   0.625046954192478   1.0000000
B2   B   0.555485767844103   0.944409550588716   0.625073359695374   1.0000000
B2   B   0.388719726519806   0.444489671704844   0.625247942938390   1.0000000
B2   B   0.888827619260590   0.944363828631767   0.625053662392150   1.0000000
B2   B   0.055430286015808   0.944284914374641   0.124937557481258   1.0000000
B2   B   0.722321358456221   0.444520928699262   0.624921370045151   1.0000000
B2   B   0.388780728822710   0.944336913878732   0.124947856088465   1.0000000
B2   B   0.222005825191846   0.444489181886165   0.124891868091502   1.0000000
B2   B   0.222068650688915   0.611144940977388   0.124953045807523   1.0000000
B2   B   0.555629119828401   0.444481226580865   0.124362291899901   1.0000000
B2   B   0.722177134234910   0.944418389813973   0.124931513675027   1.0000000
B2   B   0.888875695064266   0.444496744368152   0.125046766533223   1.0000000
B2   B   0.055464292484411   0.611110263929865   0.625007271998601   1.0000000
B2   B   0.222005825191846   0.110849976639024   0.625108131908498   1.0000000
B2   B   0.722321358456221   0.611133763090295   0.624921370045151   1.0000000
B2   B   0.555490021953339   0.111026252998839   0.625032331451204   1.0000000
B2   B   0.888804269852216   0.111068801592779   0.625078620018335   1.0000000


