data_1
_audit_creation_method   'vasp2cif'
_cell_length_a    17.52789999999977
_cell_length_b    17.52789999999977
_cell_length_c    15.0
_cell_angle_alpha    90.0
_cell_angle_beta    90.0
_cell_angle_gamma    119.99999999999916

_symmetry_space_group_name_H-M    'P 1'
loop_
_atom_site_label
_atom_site_type_symbol
_atom_site_fract_x
_atom_site_fract_y
_atom_site_fract_z
_atom_site_occupancy
B2   B   0.905666755905534   0.953068358791089   0.111001248953476   1.0000000
B2   B   0.904699490220124   0.095302530975872   0.110998767526538   1.0000000
B2   B   0.904349742812507   0.237889218251755   0.111033667958149   1.0000000
B2   B   0.904699490220124   0.380825652935249   0.110998767526538   1.0000000
B2   B   0.905666755905534   0.524028802362447   0.111001248953476   1.0000000
B2   B   0.905532004560220   0.667073121123667   0.111041198220865   1.0000000
B2   B   0.905532004560220   0.809889288684555   0.111041198220865   1.0000000
B2   B   0.047803849151741   0.952198172044256   0.111010236346483   1.0000000
B2   B   0.046933662404914   0.094335265290462   0.111001248953476   1.0000000
B2   B   0.046294554124128   0.237171430315847   0.110992976055748   1.0000000
B2   B   0.046294554124128   0.380553529055274   0.110992976055748   1.0000000
B2   B   0.046933662404914   0.524028802362447   0.111001248953476   1.0000000
B2   B   0.047803849151741   0.667037793911482   0.111010236346483   1.0000000
B2   B   0.047926167460683   0.809679142132340   0.110987088236352   1.0000000
B2   B   0.190322879063663   0.952075853735327   0.110987088236352   1.0000000
B2   B   0.190112732511448   0.094470016635776   0.111041198220865   1.0000000
B2   B   0.187787150718380   0.235351102419303   0.111039451440002   1.0000000
B2   B   0.187460552357217   0.379445478802108   0.111049485735346   1.0000000
B2   B   0.187787150718380   0.523866453547078   0.111039451440002   1.0000000
B2   B   0.190112732511448   0.667073121123667   0.111041198220865   1.0000000
B2   B   0.190322879063663   0.809679142132340   0.110987088236352   1.0000000
B2   B   0.332964227285516   0.952198172044256   0.111010236346483   1.0000000
B2   B   0.332928900073331   0.094470016635776   0.111041198220865   1.0000000
B2   B   0.332791010526070   0.237010405102142   0.111058620992962   1.0000000
B2   B   0.327170613788458   0.375471520826937   0.111091766233437   1.0000000
B2   B   0.327170613788458   0.523129498208513   0.111091766233437   1.0000000
B2   B   0.332791010526070   0.667211010670928   0.111058620992962   1.0000000
B2   B   0.332928900073331   0.809889288684555   0.111041198220865   1.0000000
B2   B   0.475973218834552   0.953068358791089   0.111001248953476   1.0000000
B2   B   0.475973218834552   0.094335265290462   0.111001248953476   1.0000000
B2   B   0.476135567649920   0.235351102419303   0.111039451440002   1.0000000
B2   B   0.476872522988485   0.375471520826937   0.111091766233437   1.0000000
B2   B   0.476872522988485   0.672831407408548   0.111091766233437   1.0000000
B2   B   0.476135567649920   0.812214870477624   0.111039451440002   1.0000000
B2   B   0.619448492140722   0.953707467071875   0.110992976055748   1.0000000
B2   B   0.619176368260754   0.095302530975872   0.110998767526538   1.0000000
B2   B   0.619448492140722   0.237171430315847   0.110992976055748   1.0000000
B2   B   0.620556542393895   0.379445478802108   0.111049485735346   1.0000000
B2   B   0.624530500369059   0.523129498208513   0.111091766233437   1.0000000
B2   B   0.624530500369059   0.672831407408548   0.111091766233437   1.0000000
B2   B   0.620556542393895   0.812541468838787   0.111049485735346   1.0000000
B2   B   0.762830590880157   0.953707467071875   0.110992976055748   1.0000000
B2   B   0.762112802944248   0.095652278383489   0.111033667958149   1.0000000
B2   B   0.762112802944248   0.237889218251755   0.111033667958149   1.0000000
B2   B   0.762830590880157   0.380553529055274   0.110992976055748   1.0000000
B2   B   0.764650918776700   0.523866453547078   0.111039451440002   1.0000000
B2   B   0.762991616093868   0.667211010670928   0.111058620992962   1.0000000
B2   B   0.764650918776700   0.812214870477624   0.111039451440002   1.0000000
N2   N   0.952761004820724   0.904980408480608   0.111000697246347   1.0000000
N2   N   0.952327255766564   0.047674146151449   0.110973182735355   1.0000000
N2   N   0.951706853296949   0.190142616778858   0.110964061595684   1.0000000
N2   N   0.951706853296949   0.332991218636089   0.110964061595684   1.0000000
N2   N   0.952327255766564   0.476080091733113   0.110973182735355   1.0000000
N2   N   0.952761004820724   0.619209290015112   0.111000697246347   1.0000000
N2   N   0.952833650506473   0.762131172090738   0.110983010842722   1.0000000
N2   N   0.095306619112793   0.904694782805206   0.110977167802495   1.0000000
N2   N   0.095020993437391   0.047240397097281   0.111000697246347   1.0000000
N2   N   0.093434518468377   0.188977202926427   0.110986107706873   1.0000000
N2   N   0.093113761159542   0.332271227416768   0.110978075011499   1.0000000
N2   N   0.093434518468377   0.475886009215944   0.110986107706873   1.0000000
N2   N   0.095020993437391   0.619209290015112   0.111000697246347   1.0000000
N2   N   0.095306619112793   0.762042241538585   0.110977167802495   1.0000000
N2   N   0.237959160379420   0.904694782805206   0.110977167802495   1.0000000
N2   N   0.237870229827268   0.047167751411533   0.110983010842722   1.0000000
N2   N   0.237388377211537   0.189556369026770   0.111030234768347   1.0000000
N2   N   0.233254524069871   0.329585680989937   0.111054629288564   1.0000000
N2   N   0.233254524069871   0.475097536753928   0.111054629288564   1.0000000
N2   N   0.237388377211537   0.619260701859763   0.111030234768347   1.0000000
N2   N   0.237870229827268   0.762131172090738   0.110983010842722   1.0000000
N2   N   0.380792111902886   0.904980408480608   0.111000697246347   1.0000000
N2   N   0.380792111902886   0.047240397097281   0.111000697246347   1.0000000
N2   N   0.380740700058236   0.189556369026770   0.111030234768347   1.0000000
N2   N   0.380504964414399   0.332437220585795   0.111046298286785   1.0000000
N2   N   0.363883304679104   0.467655999176545   0.111112491721876   1.0000000
N2   N   0.380504964414399   0.619496437503606   0.111046298286785   1.0000000
N2   N   0.380740700058236   0.762613024706476   0.111030234768347   1.0000000
N2   N   0.524115392701052   0.906566883449629   0.110986107706873   1.0000000
N2   N   0.523921310183884   0.047674146151449   0.110973182735355   1.0000000
N2   N   0.524115392701052   0.188977202926427   0.110986107706873   1.0000000
N2   N   0.524903865163068   0.329585680989937   0.111054629288564   1.0000000
N2   N   0.532345402740451   0.467655999176545   0.111112491721876   1.0000000
N2   N   0.532345402740451   0.636118097238894   0.111112491721876   1.0000000
N2   N   0.524903865163075   0.766746877848135   0.111054629288564   1.0000000
N2   N   0.667730174500221   0.906887640758463   0.110978075011499   1.0000000
N2   N   0.667010183280908   0.048294548621057   0.110964061595684   1.0000000
N2   N   0.667010183280908   0.190142616778858   0.110964061595684   1.0000000
N2   N   0.667730174500221   0.332271227416768   0.110978075011499   1.0000000
N2   N   0.670415720927060   0.475097536753928   0.111054629288564   1.0000000
N2   N   0.667564181331202   0.619496437503606   0.111046298286785   1.0000000
N2   N   0.670415720927060   0.766746877848135   0.111054629288564   1.0000000
N2   N   0.811024198991572   0.906566883449629   0.110986107706873   1.0000000
N2   N   0.809858785139140   0.048294548621057   0.110964061595684   1.0000000
N2   N   0.809525273905997   0.190476128012001   0.111055947326721   1.0000000
N2   N   0.809858785139140   0.332991218636089   0.110964061595684   1.0000000
N2   N   0.811024198991572   0.475886009215944   0.110986107706873   1.0000000
N2   N   0.810445032891229   0.619260701859763   0.111030234768347   1.0000000
N2   N   0.810445032891229   0.762613024706476   0.111030234768347   1.0000000
S2   S   0.476191212381998   0.523810808815000   0.111065544027511   1.0000000


