data_1
_audit_creation_method   'vasp2cif'
_cell_length_a    14.93631414619966
_cell_length_b    14.936314146199727
_cell_length_c    13.341276283792837
_cell_angle_alpha    90.0
_cell_angle_beta    90.0
_cell_angle_gamma    119.99999999999984

_symmetry_space_group_name_H-M    'P 1'
loop_
_atom_site_label
_atom_site_type_symbol
_atom_site_fract_x
_atom_site_fract_y
_atom_site_fract_z
_atom_site_occupancy
Si2   Si   0.444444444444443   0.388888888888886   0.375000000000000   1.0000000
N2   N   0.111107345250454   0.055556300081116   0.125072062244744   1.0000000
N2   N   0.611107885896261   0.555561061975095   0.124725642751294   1.0000000
N2   N   0.444448954830666   0.055556300081116   0.125072062244744   1.0000000
N2   N   0.944442047496260   0.555553299217520   0.125039639504107   1.0000000
N2   N   0.777777777777779   0.055555555555557   0.124972236477241   1.0000000
N2   N   0.111111111111114   0.722222222222221   0.624971534332037   1.0000000
N2   N   0.444448954830666   0.722225988082884   0.624927937755263   1.0000000
N2   N   0.277772271358243   0.222225447437079   0.625274357248704   1.0000000
N2   N   0.777777033252211   0.722225988082884   0.624927937755263   1.0000000
N2   N   0.611119770062428   0.222213563270909   0.624966891740817   1.0000000
N2   N   0.944435719777366   0.222219867751458   0.625011895888481   1.0000000
N2   N   0.277780034115813   0.722222081612073   0.125039639504107   1.0000000
N2   N   0.111093793208490   0.222213563270909   0.125033108259181   1.0000000
N2   N   0.444453176078836   0.222225447437079   0.124725642751294   1.0000000
N2   N   0.611119770062428   0.722239540124844   0.125033108259181   1.0000000
N2   N   0.944442047496260   0.722222081612073   0.125039639504107   1.0000000
N2   N   0.777784147974104   0.222219867751458   0.124988104111515   1.0000000
N2   N   0.111111251721260   0.888891285837069   0.624960360495894   1.0000000
N2   N   0.444445422157371   0.888889377745349   0.624999211796094   1.0000000
N2   N   0.277772271358243   0.388880157254492   0.625274357248704   1.0000000
N2   N   0.611107885896261   0.388880157254492   0.625274357248704   1.0000000
N2   N   0.777784147974104   0.888897613555963   0.625011895888481   1.0000000
N2   N   0.944443955587980   0.388887911175957   0.624999211796094   1.0000000
N2   N   0.111107345250454   0.388884378502662   0.125072062244744   1.0000000
N2   N   0.277780034115813   0.888891285837069   0.125039639504107   1.0000000
N2   N   0.611113465581869   0.888897613555963   0.124988104111515   1.0000000
N2   N   0.444444444444443   0.388888888888886   0.122474328763096   1.0000000
N2   N   0.944443955587980   0.888889377745349   0.125000788203904   1.0000000
N2   N   0.777777033252211   0.388884378502662   0.125072062244744   1.0000000
N2   N   0.277780726516822   0.555552606816517   0.624937346377839   1.0000000
N2   N   0.111107345250454   0.055556300081116   0.624927937755263   1.0000000
N2   N   0.611107885896261   0.555561061975095   0.625274357248704   1.0000000
N2   N   0.444448954830666   0.055556300081116   0.624927937755263   1.0000000
N2   N   0.944442047496260   0.555553299217520   0.624960360495894   1.0000000
N2   N   0.111111251721260   0.555553299217520   0.125039639504107   1.0000000
N2   N   0.777777777777779   0.055555555555557   0.625027763522761   1.0000000
N2   N   0.277780726516822   0.055561453033649   0.125062653622162   1.0000000
N2   N   0.444453176078836   0.555561061975095   0.124725642751294   1.0000000
N2   N   0.777771880299692   0.555552606816517   0.125062653622162   1.0000000
N2   N   0.611113465581869   0.055549185359234   0.124988104111515   1.0000000
N2   N   0.444453176078836   0.555561061975095   0.625274357248704   1.0000000
N2   N   0.944435719777366   0.055549185359234   0.124988104111515   1.0000000
N2   N   0.277780034115813   0.722222081612073   0.624960360495894   1.0000000
N2   N   0.111093793208490   0.222213563270909   0.624966891740817   1.0000000
N2   N   0.444453176078836   0.222225447437079   0.625274357248704   1.0000000
N2   N   0.611119770062428   0.722239540124844   0.624966891740817   1.0000000
N2   N   0.944442047496260   0.722222081612073   0.624960360495894   1.0000000
N2   N   0.777784147974104   0.222219867751458   0.625011895888481   1.0000000
N2   N   0.111111111111114   0.722222222222221   0.125028465667970   1.0000000
N2   N   0.444448954830666   0.722225988082884   0.125072062244744   1.0000000
N2   N   0.277772271358243   0.222225447437079   0.124725642751294   1.0000000
N2   N   0.777777033252211   0.722225988082884   0.125072062244744   1.0000000
N2   N   0.611119770062428   0.222213563270909   0.125033108259181   1.0000000
N2   N   0.944435719777366   0.222219867751458   0.124988104111515   1.0000000
N2   N   0.111107345250454   0.388884378502662   0.624927937755263   1.0000000
N2   N   0.277780034115813   0.888891285837069   0.624960360495894   1.0000000
N2   N   0.611113465581869   0.888897613555963   0.625011895888481   1.0000000
N2   N   0.444444444444443   0.388888888888886   0.627525671236909   1.0000000
N2   N   0.944443955587980   0.888889377745349   0.624999211796094   1.0000000
N2   N   0.111111251721260   0.888891285837069   0.125039639504107   1.0000000
N2   N   0.777777033252211   0.388884378502662   0.624927937755263   1.0000000
N2   N   0.444445422157371   0.888889377745349   0.125000788203904   1.0000000
N2   N   0.277772271358243   0.388880157254492   0.124725642751294   1.0000000
N2   N   0.277780726516822   0.555552606816517   0.125062653622162   1.0000000
N2   N   0.611107885896261   0.388880157254492   0.124725642751294   1.0000000
N2   N   0.777784147974104   0.888897613555963   0.124988104111515   1.0000000
N2   N   0.944443955587980   0.388887911175957   0.125000788203904   1.0000000
N2   N   0.111111251721260   0.555553299217520   0.624960360495894   1.0000000
N2   N   0.277780726516822   0.055561453033649   0.624937346377839   1.0000000
N2   N   0.777771880299692   0.555552606816517   0.624937346377839   1.0000000
N2   N   0.611113465581869   0.055549185359234   0.625011895888481   1.0000000
N2   N   0.944435719777366   0.055549185359234   0.625011895888481   1.0000000
N2   N   0.054812107520451   0.110604830563423   0.375000000000000   1.0000000
N2   N   0.555940396798395   0.611880793596815   0.375000000000000   1.0000000
N2   N   0.387897830563911   0.106516377313932   0.375000000000000   1.0000000
N2   N   0.890561625063345   0.611947479198347   0.375000000000000   1.0000000
N2   N   0.722353978701426   0.110979354631911   0.375000000000000   1.0000000
N2   N   0.055554687557348   0.777778645775982   0.875000000000000   1.0000000
N2   N   0.388890068960492   0.777778295644281   0.875000000000000   1.0000000
N2   N   0.222221684874772   0.277777509104053   0.875000000000000   1.0000000
N2   N   0.722223146478826   0.777776140703119   0.875000000000000   1.0000000
N2   N   0.555555824229282   0.277777509104053   0.875000000000000   1.0000000
N2   N   0.888890338243249   0.277780676486505   0.875000000000000   1.0000000
N2   N   0.221893292427692   0.777613312880510   0.375000000000000   1.0000000
N2   N   0.054812107520451   0.277540610290364   0.375000000000000   1.0000000
N2   N   0.381242174446527   0.262484348893061   0.375000000000000   1.0000000
N2   N   0.555792723042968   0.778521225812880   0.375000000000000   1.0000000
N2   N   0.890155255414368   0.778778550702818   0.375000000000000   1.0000000
N2   N   0.722728502769917   0.277540610290364   0.375000000000000   1.0000000
N2   N   0.055555037689060   0.944445106649560   0.875000000000000   1.0000000
N2   N   0.388890068960492   0.944445106649560   0.875000000000000   1.0000000
N2   N   0.222221760877808   0.444444022304406   0.875000000000000   1.0000000
N2   N   0.555566586107148   0.444449959720238   0.875000000000000   1.0000000
N2   N   0.722221229375488   0.944442458750971   0.875000000000000   1.0000000
N2   N   0.888888226683769   0.444443264372836   0.875000000000000   1.0000000
N2   N   0.054554782630511   0.444710038044883   0.375000000000000   1.0000000
N2   N   0.221385854134991   0.942771708269984   0.375000000000000   1.0000000
N2   N   0.555753748445244   0.944543540889289   0.375000000000000   1.0000000
N2   N   0.381242174446527   0.452091158886802   0.375000000000000   1.0000000
N2   N   0.888789792444039   0.944543540889289   0.375000000000000   1.0000000
N2   N   0.726816956019408   0.445435502769418   0.375000000000000   1.0000000
N2   N   0.222223061010488   0.611110272322849   0.875000000000000   1.0000000
N2   N   0.055557192630217   0.111110186854509   0.875000000000000   1.0000000
N2   N   0.555555824229282   0.611111648458566   0.875000000000000   1.0000000
N2   N   0.388889311028922   0.111111071906739   0.875000000000000   1.0000000
N2   N   0.888887211312346   0.611110272322849   0.875000000000000   1.0000000
N2   N   0.055720020452821   0.611440040905643   0.375000000000000   1.0000000
N2   N   0.722221229375488   0.111112103957846   0.875000000000000   1.0000000
N2   N   0.218618546750015   0.106516377313932   0.375000000000000   1.0000000
N2   N   0.387897830563911   0.614714786583318   0.375000000000000   1.0000000
N2   N   0.726816956019408   0.614714786583318   0.375000000000000   1.0000000
N2   N   0.555792723042968   0.110604830563423   0.375000000000000   1.0000000
N2   N   0.388889311028922   0.611111572455523   0.875000000000000   1.0000000
N2   N   0.888625375930475   0.110979354631911   0.375000000000000   1.0000000
N2   N   0.222223958218636   0.777778645775982   0.875000000000000   1.0000000
N2   N   0.055557192630217   0.277780339109042   0.875000000000000   1.0000000
N2   N   0.388883373613090   0.277766747226195   0.875000000000000   1.0000000
N2   N   0.555552994224298   0.777776140703119   0.875000000000000   1.0000000
N2   N   0.888888226683769   0.777778295644281   0.875000000000000   1.0000000
N2   N   0.722223146478826   0.277780339109042   0.875000000000000   1.0000000
N2   N   0.055720020452821   0.777613312880510   0.375000000000000   1.0000000
N2   N   0.388623295288446   0.778778550702818   0.375000000000000   1.0000000
N2   N   0.221452539736527   0.277392936534928   0.375000000000000   1.0000000
N2   N   0.722728502769917   0.778521225812880   0.375000000000000   1.0000000
N2   N   0.555940396798395   0.277392936534928   0.375000000000000   1.0000000
N2   N   0.888789792444039   0.277579584888091   0.375000000000000   1.0000000
N2   N   0.055555037689060   0.444443264372836   0.875000000000000   1.0000000
N2   N   0.222223061010488   0.944446122020982   0.875000000000000   1.0000000
N2   N   0.555552656846835   0.944442995090079   0.875000000000000   1.0000000
N2   N   0.388883373613090   0.444449959720238   0.875000000000000   1.0000000
N2   N   0.888890338243249   0.944442995090079   0.875000000000000   1.0000000
N2   N   0.054554782630511   0.943178077918961   0.375000000000000   1.0000000
N2   N   0.722222261426598   0.444444022304406   0.875000000000000   1.0000000
N2   N   0.388623295288446   0.943178077918961   0.375000000000000   1.0000000
N2   N   0.218618546750015   0.445435502769418   0.375000000000000   1.0000000
N2   N   0.221385854134991   0.611947479198347   0.375000000000000   1.0000000
N2   N   0.570848984440275   0.452091158886802   0.375000000000000   1.0000000
N2   N   0.722353978701426   0.944707957402853   0.375000000000000   1.0000000
N2   N   0.890155255414368   0.444710038044883   0.375000000000000   1.0000000
N2   N   0.055554687557348   0.611109375114695   0.875000000000000   1.0000000
N2   N   0.222221760877808   0.111111071906739   0.875000000000000   1.0000000
N2   N   0.722222261426598   0.611111572455523   0.875000000000000   1.0000000
N2   N   0.555552994224298   0.111110186854509   0.875000000000000   1.0000000
N2   N   0.888890874582357   0.111112103957846   0.875000000000000   1.0000000
B2   B   0.108686502978531   0.053269439661086   0.375000000000000   1.0000000
B2   B   0.617419420767687   0.560916863791194   0.375000000000000   1.0000000
B2   B   0.444582936682552   0.053269439661086   0.375000000000000   1.0000000
B2   B   0.945207597685357   0.555771116143090   0.375000000000000   1.0000000
B2   B   0.777777777777779   0.055555555555557   0.375000000000000   1.0000000
B2   B   0.111111111111114   0.722222222222221   0.875000000000000   1.0000000
B2   B   0.444446448912781   0.722225272856307   0.875000000000000   1.0000000
B2   B   0.277778423702775   0.222222149575921   0.875000000000000   1.0000000
B2   B   0.777778823943533   0.722225272856307   0.875000000000000   1.0000000
B2   B   0.611111208576530   0.222222124756810   0.875000000000000   1.0000000
B2   B   0.944443031337076   0.222221759727979   0.875000000000000   1.0000000
B2   B   0.277562217190236   0.722769814875597   0.375000000000000   1.0000000
B2   B   0.110231769973919   0.221782551653622   0.375000000000000   1.0000000
B2   B   0.443497443023507   0.215913912565648   0.375000000000000   1.0000000
B2   B   0.611550781679712   0.723101563359416   0.375000000000000   1.0000000
B2   B   0.945207597685357   0.722769814875597   0.375000000000000   1.0000000
B2   B   0.777870153061689   0.221876703383537   0.375000000000000   1.0000000
B2   B   0.111110033060440   0.888889079827999   0.875000000000000   1.0000000
B2   B   0.444446706321008   0.888890019827167   0.875000000000000   1.0000000
B2   B   0.277778423702775   0.388889607460186   0.875000000000000   1.0000000
B2   B   0.611111183757421   0.388889607460186   0.875000000000000   1.0000000
B2   B   0.777778728390901   0.888890301996253   0.875000000000000   1.0000000
B2   B   0.944443313506161   0.388886627012321   0.875000000000000   1.0000000
B2   B   0.108686502978531   0.388750396650777   0.375000000000000   1.0000000
B2   B   0.277562217190236   0.888125735647971   0.375000000000000   1.0000000
B2   B   0.611456629949802   0.889326783011480   0.375000000000000   1.0000000
B2   B   0.944314999291821   0.889018334041507   0.375000000000000   1.0000000
B2   B   0.780063893672247   0.388750396650777   0.375000000000000   1.0000000
B2   B   0.277777601427649   0.555555731905685   0.875000000000000   1.0000000
B2   B   0.111108060477028   0.055554509389811   0.875000000000000   1.0000000
B2   B   0.611111183757421   0.555554909630556   0.875000000000000   1.0000000
B2   B   0.444446448912781   0.055554509389811   0.875000000000000   1.0000000
B2   B   0.944444253505329   0.555554286565760   0.875000000000000   1.0000000
B2   B   0.110563518457741   0.555771116143090   0.375000000000000   1.0000000
B2   B   0.777777777777779   0.055555555555557   0.875000000000000   1.0000000
B2   B   0.276472607956654   0.052945215913306   0.375000000000000   1.0000000
B2   B   0.443497443023507   0.560916863791194   0.375000000000000   1.0000000
B2   B   0.780388117420028   0.556860725376688   0.375000000000000   1.0000000
B2   B   0.611456629949802   0.055463180271649   0.375000000000000   1.0000000
B2   B   0.444443725873142   0.555554909630556   0.875000000000000   1.0000000
B2   B   0.944006550321848   0.055463180271649   0.375000000000000   1.0000000
B2   B   0.277779046767568   0.722223300272895   0.875000000000000   1.0000000
B2   B   0.111110916180290   0.222222124756810   0.875000000000000   1.0000000
B2   B   0.444443725873142   0.222222149575921   0.875000000000000   1.0000000
B2   B   0.611111208576530   0.722222417153040   0.875000000000000   1.0000000
B2   B   0.944444253505329   0.722223300272895   0.875000000000000   1.0000000
B2   B   0.777778728390901   0.222221759727979   0.875000000000000   1.0000000
B2   B   0.111111111111114   0.722222222222221   0.375000000000000   1.0000000
B2   B   0.444582936682552   0.724646830354808   0.375000000000000   1.0000000
B2   B   0.272416469542138   0.215913912565648   0.375000000000000   1.0000000
B2   B   0.780063893672247   0.724646830354808   0.375000000000000   1.0000000
B2   B   0.611550781679712   0.221782551653622   0.375000000000000   1.0000000
B2   B   0.944006550321848   0.221876703383537   0.375000000000000   1.0000000
B2   B   0.111108060477028   0.388886884420547   0.875000000000000   1.0000000
B2   B   0.277779046767568   0.888889079827999   0.875000000000000   1.0000000
B2   B   0.611111573605353   0.888890301996253   0.875000000000000   1.0000000
B2   B   0.444444444444443   0.388888888888886   0.875000000000000   1.0000000
B2   B   0.944443313506161   0.888890019827167   0.875000000000000   1.0000000
B2   B   0.110563518457741   0.888125735647971   0.375000000000000   1.0000000
B2   B   0.777778823943533   0.388886884420547   0.875000000000000   1.0000000
B2   B   0.444703334749685   0.889018334041507   0.375000000000000   1.0000000
B2   B   0.272416469542138   0.389835890309822   0.375000000000000   1.0000000
B2   B   0.276472607956654   0.556860725376688   0.375000000000000   1.0000000
B2   B   0.617419420767687   0.389835890309822   0.375000000000000   1.0000000
B2   B   0.777870153061689   0.889326783011480   0.375000000000000   1.0000000
B2   B   0.944314999291821   0.388629998583643   0.375000000000000   1.0000000
B2   B   0.111110033060440   0.555554286565760   0.875000000000000   1.0000000
B2   B   0.277777601427649   0.055555202855296   0.875000000000000   1.0000000
B2   B   0.777778130478038   0.555555731905685   0.875000000000000   1.0000000
B2   B   0.611111573605353   0.055554604942432   0.875000000000000   1.0000000
B2   B   0.944443031337076   0.055554604942432   0.875000000000000   1.0000000
B2   B   0.055537716456176   0.111109395060171   0.125018407023150   1.0000000
B2   B   0.555563164222000   0.611126328444000   0.124835998431270   1.0000000
B2   B   0.388887978216390   0.111105294611933   0.124996776621152   1.0000000
B2   B   0.888890133001217   0.611111733167275   0.125035296334493   1.0000000
B2   B   0.722223845975137   0.111109487358199   0.124992453464263   1.0000000
B2   B   0.055554632126730   0.777778701206601   0.624982214726527   1.0000000
B2   B   0.388892213180957   0.777783424551621   0.624978529709564   1.0000000
B2   B   0.222207004889338   0.277770169111336   0.625164001568733   1.0000000
B2   B   0.722223938273156   0.777795616877163   0.624981592976856   1.0000000
B2   B   0.555563164222000   0.277770169111336   0.625164001568733   1.0000000
B2   B   0.888884974871490   0.277769949742998   0.625004307832709   1.0000000
B2   B   0.222224069079874   0.777778701206601   0.125017785273473   1.0000000
B2   B   0.055537716456176   0.277761654729342   0.125018407023150   1.0000000
B2   B   0.388872398761676   0.277744797523360   0.123888532596605   1.0000000
B2   B   0.555571678604001   0.777795616877163   0.125018407023150   1.0000000
B2   B   0.888891211370657   0.777783424551621   0.125021470290431   1.0000000
B2   B   0.722223938273156   0.277761654729342   0.125018407023150   1.0000000
B2   B   0.055549908781715   0.944442121962672   0.624978529709564   1.0000000
B2   B   0.388892213180957   0.944442121962672   0.624978529709564   1.0000000
B2   B   0.222217316395536   0.444445355116939   0.625003223378844   1.0000000
B2   B   0.555588535809977   0.444460934571653   0.626111467403393   1.0000000
B2   B   0.722223845975137   0.944447691950274   0.625007546535735   1.0000000
B2   B   0.888891211370657   0.444441120152371   0.624978529709564   1.0000000
B2   B   0.055549908781715   0.444441120152371   0.125021470290431   1.0000000
B2   B   0.222221600166057   0.944443200332112   0.125035296334493   1.0000000
B2   B   0.555563383590335   0.944448358461838   0.124995692167291   1.0000000
B2   B   0.388872398761676   0.444460934571653   0.123888532596605   1.0000000
B2   B   0.888884974871490   0.944448358461838   0.124995692167291   1.0000000
B2   B   0.722228038721401   0.444445355116939   0.124996776621152   1.0000000
B2   B   0.222221600166057   0.611111733167275   0.624964703665515   1.0000000
B2   B   0.055537716456176   0.111109395060171   0.624981592976856   1.0000000
B2   B   0.555563164222000   0.611126328444000   0.625164001568733   1.0000000
B2   B   0.388887978216390   0.111105294611933   0.625003223378844   1.0000000
B2   B   0.888890133001217   0.611111733167275   0.624964703665515   1.0000000
B2   B   0.055554632126730   0.611109264253461   0.125017785273473   1.0000000
B2   B   0.722223845975137   0.111109487358199   0.625007546535735   1.0000000
B2   B   0.222217316395536   0.111105294611933   0.124996776621152   1.0000000
B2   B   0.388887978216390   0.611116016937802   0.124996776621152   1.0000000
B2   B   0.722228038721401   0.611116016937802   0.124996776621152   1.0000000
B2   B   0.555571678604001   0.111109395060171   0.125018407023150   1.0000000
B2   B   0.388887978216390   0.611116016937802   0.625003223378844   1.0000000
B2   B   0.888885641383054   0.111109487358199   0.124992453464263   1.0000000
B2   B   0.222224069079874   0.777778701206601   0.624982214726527   1.0000000
B2   B   0.055537716456176   0.277761654729342   0.624981592976856   1.0000000
B2   B   0.388872398761676   0.277744797523360   0.626111467403393   1.0000000
B2   B   0.555571678604001   0.777795616877163   0.624981592976856   1.0000000
B2   B   0.888891211370657   0.777783424551621   0.624978529709564   1.0000000
B2   B   0.722223938273156   0.277761654729342   0.624981592976856   1.0000000
B2   B   0.055554632126730   0.777778701206601   0.125017785273473   1.0000000
B2   B   0.388892213180957   0.777783424551621   0.125021470290431   1.0000000
B2   B   0.222207004889338   0.277770169111336   0.124835998431270   1.0000000
B2   B   0.722223938273156   0.777795616877163   0.125018407023150   1.0000000
B2   B   0.555563164222000   0.277770169111336   0.124835998431270   1.0000000
B2   B   0.888884974871490   0.277769949742998   0.124995692167291   1.0000000
B2   B   0.055549908781715   0.444441120152371   0.624978529709564   1.0000000
B2   B   0.222221600166057   0.944443200332112   0.624964703665515   1.0000000
B2   B   0.555563383590335   0.944448358461838   0.625004307832709   1.0000000
B2   B   0.388872398761676   0.444460934571653   0.626111467403393   1.0000000
B2   B   0.888884974871490   0.944448358461838   0.625004307832709   1.0000000
B2   B   0.055549908781715   0.944442121962672   0.125021470290431   1.0000000
B2   B   0.722228038721401   0.444445355116939   0.625003223378844   1.0000000
B2   B   0.388892213180957   0.944442121962672   0.125021470290431   1.0000000
B2   B   0.222217316395536   0.444445355116939   0.124996776621152   1.0000000
B2   B   0.222221600166057   0.611111733167275   0.125035296334493   1.0000000
B2   B   0.555588535809977   0.444460934571653   0.123888532596605   1.0000000
B2   B   0.722223845975137   0.944447691950274   0.124992453464263   1.0000000
B2   B   0.888891211370657   0.444441120152371   0.125021470290431   1.0000000
B2   B   0.055554632126730   0.611109264253461   0.624982214726527   1.0000000
B2   B   0.222217316395536   0.111105294611933   0.625003223378844   1.0000000
B2   B   0.722228038721401   0.611116016937802   0.625003223378844   1.0000000
B2   B   0.555571678604001   0.111109395060171   0.624981592976856   1.0000000
B2   B   0.888885641383054   0.111109487358199   0.625007546535735   1.0000000


