data_1
_audit_creation_method   'vasp2cif'
_cell_length_a    14.93631414619966
_cell_length_b    14.936314146199727
_cell_length_c    13.341276283792837
_cell_angle_alpha    90.0
_cell_angle_beta    90.0
_cell_angle_gamma    119.99999999999984

_symmetry_space_group_name_H-M    'P 1'
loop_
_atom_site_label
_atom_site_type_symbol
_atom_site_fract_x
_atom_site_fract_y
_atom_site_fract_z
_atom_site_occupancy
C2   C   0.610313114172713   0.386601032106272   0.375000000000000   1.0000000
O2   O   0.446751002085055   0.387732629530592   0.375000000000000   1.0000000
N2   N   0.559781810875287   0.442712227652254   0.375000000000000   1.0000000
N2   N   0.111124621019390   0.055550981231544   0.125259908350475   1.0000000
N2   N   0.611089294675152   0.555534638433095   0.125928800652457   1.0000000
N2   N   0.444433530802369   0.055543701891768   0.125376065758600   1.0000000
N2   N   0.944459793975606   0.555566902539502   0.125309653982374   1.0000000
N2   N   0.777766137522370   0.055555682949880   0.125184446919498   1.0000000
N2   N   0.111118663600934   0.722220005776570   0.624816826964953   1.0000000
N2   N   0.444427885770696   0.722218091709076   0.624745971261837   1.0000000
N2   N   0.277786347541034   0.222235454605150   0.624386265937993   1.0000000
N2   N   0.777769728728430   0.722195838554657   0.624649148884499   1.0000000
N2   N   0.611102827231112   0.222226914348420   0.624374740611977   1.0000000
N2   N   0.944445079399727   0.222240760329169   0.624794271071358   1.0000000
N2   N   0.277771236307609   0.722223031539921   0.125191169066548   1.0000000
N2   N   0.111112041998129   0.222229037691390   0.125257650987316   1.0000000
N2   N   0.444468494313441   0.222236758068386   0.125972332088925   1.0000000
N2   N   0.611096700867788   0.722213714274380   0.125319885715726   1.0000000
N2   N   0.944453945359417   0.722208278067458   0.125262120488088   1.0000000
N2   N   0.777771792657051   0.222240522360926   0.125293406782162   1.0000000
N2   N   0.111118474216038   0.888875865351826   0.624803711235878   1.0000000
N2   N   0.444425128521719   0.888877952470871   0.624793045633312   1.0000000
N2   N   0.277783566306947   0.388896728370060   0.624410850074028   1.0000000
N2   N   0.611094693634663   0.388884150018666   0.623934709821106   1.0000000
N2   N   0.777771845526902   0.888875587117728   0.624797438724979   1.0000000
N2   N   0.944455366881468   0.388920267243315   0.624738761459164   1.0000000
N2   N   0.111120457074900   0.388914586218063   0.125256933930813   1.0000000
N2   N   0.277774725369607   0.888876918174759   0.125205331378080   1.0000000
N2   N   0.611089954860520   0.888881549007138   0.125195488281538   1.0000000
N2   N   0.444447502187970   0.388894741388195   0.126147778558047   1.0000000
N2   N   0.944450531654825   0.888871869405204   0.125208316454016   1.0000000
N2   N   0.777772191492116   0.388910771244400   0.125632488302425   1.0000000
N2   N   0.277777579833689   0.555568532414699   0.624721603707823   1.0000000
N2   N   0.111124621019390   0.055550981231544   0.624740091649525   1.0000000
N2   N   0.611089294675152   0.555534638433095   0.624071199347543   1.0000000
N2   N   0.444433530802369   0.055543701891768   0.624623934241400   1.0000000
N2   N   0.944459793975606   0.555566902539502   0.624690346017625   1.0000000
N2   N   0.111118926658991   0.555573416223396   0.125203591644813   1.0000000
N2   N   0.777766137522370   0.055555682949880   0.624815553080502   1.0000000
N2   N   0.277787841476489   0.055548611165556   0.125353516883782   1.0000000
N2   N   0.444449398574720   0.555562380084560   0.125616293313804   1.0000000
N2   N   0.777769015237619   0.555537444469372   0.125685897416129   1.0000000
N2   N   0.611088386980479   0.055547396867125   0.125251181978607   1.0000000
N2   N   0.444449398574720   0.555562380084560   0.624383706686196   1.0000000
N2   N   0.944445604119694   0.055549711469398   0.125196066298961   1.0000000
N2   N   0.277771236307609   0.722223031539921   0.624808830933452   1.0000000
N2   N   0.111112041998129   0.222229037691390   0.624742349012684   1.0000000
N2   N   0.444468494313441   0.222236758068386   0.624027667911075   1.0000000
N2   N   0.611096700867788   0.722213714274380   0.624680114284274   1.0000000
N2   N   0.944453945359417   0.722208278067458   0.624737879511912   1.0000000
N2   N   0.777771792657051   0.222240522360926   0.624706593217838   1.0000000
N2   N   0.111118663600934   0.722220005776570   0.125183173035047   1.0000000
N2   N   0.444427885770696   0.722218091709076   0.125254028738163   1.0000000
N2   N   0.277786347541034   0.222235454605150   0.125613734062006   1.0000000
N2   N   0.777769728728430   0.722195838554657   0.125350851115501   1.0000000
N2   N   0.611102827231112   0.222226914348420   0.125625259388023   1.0000000
N2   N   0.944445079399727   0.222240760329169   0.125205728928642   1.0000000
N2   N   0.111120457074900   0.388914586218063   0.624743066069187   1.0000000
N2   N   0.277774725369607   0.888876918174759   0.624794668621920   1.0000000
N2   N   0.611089954860520   0.888881549007138   0.624804511718462   1.0000000
N2   N   0.444447502187970   0.388894741388195   0.623852221441953   1.0000000
N2   N   0.944450531654825   0.888871869405204   0.624791683545984   1.0000000
N2   N   0.111118474216038   0.888875865351826   0.125196288764122   1.0000000
N2   N   0.777772191492116   0.388910771244400   0.624367511697575   1.0000000
N2   N   0.444425128521719   0.888877952470871   0.125206954366688   1.0000000
N2   N   0.277783566306947   0.388896728370060   0.125589149925972   1.0000000
N2   N   0.277777579833689   0.555568532414699   0.125278396292177   1.0000000
N2   N   0.611094693634663   0.388884150018666   0.126065290178895   1.0000000
N2   N   0.777771845526902   0.888875587117728   0.125202561275021   1.0000000
N2   N   0.944455366881468   0.388920267243315   0.125261238540835   1.0000000
N2   N   0.111118926658991   0.555573416223396   0.624796408355187   1.0000000
N2   N   0.277787841476489   0.055548611165556   0.624646483116218   1.0000000
N2   N   0.777769015237619   0.555537444469372   0.624314102583871   1.0000000
N2   N   0.611088386980479   0.055547396867125   0.624748818021392   1.0000000
N2   N   0.944445604119694   0.055549711469398   0.624803933701039   1.0000000
N2   N   0.055481840837250   0.110996319865580   0.375000000000000   1.0000000
N2   N   0.556549572307074   0.610841200445126   0.375000000000000   1.0000000
N2   N   0.390432049663524   0.113768576826743   0.375000000000000   1.0000000
N2   N   0.886396380608018   0.609294803952975   0.375000000000000   1.0000000
N2   N   0.722196274063779   0.111203779083009   0.375000000000000   1.0000000
N2   N   0.055551188729215   0.777781537249396   0.875000000000000   1.0000000
N2   N   0.388897374288066   0.777783595358675   0.875000000000000   1.0000000
N2   N   0.222220026740596   0.277776182775252   0.875000000000000   1.0000000
N2   N   0.722225645731814   0.777782872102433   0.875000000000000   1.0000000
N2   N   0.555557224197884   0.277780314211795   0.875000000000000   1.0000000
N2   N   0.888889087729748   0.277776344528503   0.875000000000000   1.0000000
N2   N   0.222154137117921   0.777814331011212   0.375000000000000   1.0000000
N2   N   0.055426832999068   0.277746886982360   0.375000000000000   1.0000000
N2   N   0.388317544282866   0.275610537494238   0.375000000000000   1.0000000
N2   N   0.555753257545451   0.777678226542630   0.375000000000000   1.0000000
N2   N   0.888550443089406   0.777489780402820   0.375000000000000   1.0000000
N2   N   0.722193453768094   0.277664395922857   0.375000000000000   1.0000000
N2   N   0.055553001007056   0.944451865355373   0.875000000000000   1.0000000
N2   N   0.388898875447513   0.944455569441853   0.875000000000000   1.0000000
N2   N   0.222222660219567   0.444439308336440   0.875000000000000   1.0000000
N2   N   0.555554505906409   0.444445786570553   0.875000000000000   1.0000000
N2   N   0.722227311262005   0.944448749987846   0.875000000000000   1.0000000
N2   N   0.888885314974430   0.444441108445591   0.875000000000000   1.0000000
N2   N   0.055261862603533   0.444184179513034   0.375000000000000   1.0000000
N2   N   0.222741159428548   0.945268122419641   0.375000000000000   1.0000000
N2   N   0.555648979261747   0.944939081809889   0.375000000000000   1.0000000
N2   N   0.388991784004897   0.445653620306449   0.375000000000000   1.0000000
N2   N   0.888936887435003   0.944422780031935   0.375000000000000   1.0000000
N2   N   0.714580799783046   0.441059572430062   0.375000000000000   1.0000000
N2   N   0.222221659065419   0.611107623741209   0.875000000000000   1.0000000
N2   N   0.055551688366113   0.111110123537698   0.875000000000000   1.0000000
N2   N   0.555559488972730   0.611110884033765   0.875000000000000   1.0000000
N2   N   0.388893977233779   0.111119131934627   0.875000000000000   1.0000000
N2   N   0.888882653585009   0.611109297066339   0.875000000000000   1.0000000
N2   N   0.054649542561034   0.610565897225058   0.375000000000000   1.0000000
N2   N   0.722225192670853   0.111111984060455   0.875000000000000   1.0000000
N2   N   0.223530660591887   0.112378205039132   0.375000000000000   1.0000000
N2   N   0.389368526479640   0.609903839857312   0.375000000000000   1.0000000
N2   N   0.721284180126571   0.610379449414907   0.375000000000000   1.0000000
N2   N   0.555933124117738   0.112744765636956   0.375000000000000   1.0000000
N2   N   0.388896049253074   0.611108457178454   0.875000000000000   1.0000000
N2   N   0.888863806234706   0.111136017167773   0.375000000000000   1.0000000
N2   N   0.222223663455303   0.777783005320884   0.875000000000000   1.0000000
N2   N   0.055553222356210   0.277774288074763   0.875000000000000   1.0000000
N2   N   0.388890745881149   0.277781825535243   0.875000000000000   1.0000000
N2   N   0.555562980213816   0.777782274948445   0.875000000000000   1.0000000
N2   N   0.888887749935049   0.777784617153204   0.875000000000000   1.0000000
N2   N   0.722223890955815   0.277777753689824   0.875000000000000   1.0000000
N2   N   0.054917107708492   0.777372007490274   0.375000000000000   1.0000000
N2   N   0.389071731295331   0.777580582359850   0.375000000000000   1.0000000
N2   N   0.221392211684163   0.277167584104812   0.375000000000000   1.0000000
N2   N   0.722373971393223   0.777914581263675   0.375000000000000   1.0000000
N2   N   0.558576592413842   0.283029170861461   0.375000000000000   1.0000000
N2   N   0.888753410207021   0.277822179615415   0.375000000000000   1.0000000
N2   N   0.055550924086976   0.444439602247177   0.875000000000000   1.0000000
N2   N   0.222223313428161   0.944453726868793   0.875000000000000   1.0000000
N2   N   0.555562560527950   0.944452133336438   0.875000000000000   1.0000000
N2   N   0.388893464169941   0.444443140104665   0.875000000000000   1.0000000
N2   N   0.888891738054506   0.944449669503016   0.875000000000000   1.0000000
N2   N   0.055926102849164   0.944824034662645   0.375000000000000   1.0000000
N2   N   0.722217821234528   0.444443224365376   0.875000000000000   1.0000000
N2   N   0.389281754214511   0.945380582978439   0.375000000000000   1.0000000
N2   N   0.223576052371066   0.444184765832366   0.375000000000000   1.0000000
N2   N   0.222303941875170   0.610699705969221   0.375000000000000   1.0000000
N2   N   0.722224960478647   0.944500952920349   0.375000000000000   1.0000000
N2   N   0.886577433038113   0.443891728412305   0.375000000000000   1.0000000
N2   N   0.055549047875726   0.611106354497981   0.875000000000000   1.0000000
N2   N   0.222219234809628   0.111116013931741   0.875000000000000   1.0000000
N2   N   0.722217978672892   0.611111935298421   0.875000000000000   1.0000000
N2   N   0.555561539168661   0.111115873577596   0.875000000000000   1.0000000
N2   N   0.888891127848283   0.111110781839693   0.875000000000000   1.0000000
B2   B   0.110949314237160   0.055657681057348   0.375000000000000   1.0000000
B2   B   0.612559595143462   0.558441754192159   0.375000000000000   1.0000000
B2   B   0.444874196256169   0.055926348588572   0.375000000000000   1.0000000
B2   B   0.943835915487395   0.555213778188280   0.375000000000000   1.0000000
B2   B   0.777890602211913   0.055463485361926   0.375000000000000   1.0000000
B2   B   0.111125130268570   0.722235588647599   0.875000000000000   1.0000000
B2   B   0.444451753654318   0.722259792690524   0.875000000000000   1.0000000
B2   B   0.277703777348013   0.222176653141050   0.875000000000000   1.0000000
B2   B   0.777821928501782   0.722299880438649   0.875000000000000   1.0000000
B2   B   0.611135370442349   0.222172500679037   0.875000000000000   1.0000000
B2   B   0.944435992506345   0.222196755792728   0.875000000000000   1.0000000
B2   B   0.277763667721095   0.722157574678099   0.375000000000000   1.0000000
B2   B   0.109337680165870   0.221280195660977   0.375000000000000   1.0000000
B2   B   0.446010536440960   0.223074711838628   0.375000000000000   1.0000000
B2   B   0.612137641558642   0.723748680066002   0.375000000000000   1.0000000
B2   B   0.943878243658293   0.721895031905950   0.375000000000000   1.0000000
B2   B   0.778428531098468   0.221516614550500   0.375000000000000   1.0000000
B2   B   0.111099662875049   0.888888572264951   0.875000000000000   1.0000000
B2   B   0.444454272157034   0.888885368499300   0.875000000000000   1.0000000
B2   B   0.277719648218647   0.388877366208750   0.875000000000000   1.0000000
B2   B   0.611130915013682   0.388885720948333   0.875000000000000   1.0000000
B2   B   0.777801716706251   0.888934450050235   0.875000000000000   1.0000000
B2   B   0.944465301327354   0.388872452029007   0.875000000000000   1.0000000
B2   B   0.110937034403158   0.388552155683394   0.375000000000000   1.0000000
B2   B   0.277825270269093   0.889011722419530   0.375000000000000   1.0000000
B2   B   0.611333336772822   0.889348099461091   0.375000000000000   1.0000000
B2   B   0.944654740434606   0.889242196859705   0.375000000000000   1.0000000
B2   B   0.776575394178491   0.386971913239826   0.375000000000000   1.0000000
B2   B   0.277757106365499   0.555570342001461   0.875000000000000   1.0000000
B2   B   0.111061765335508   0.055531101507556   0.875000000000000   1.0000000
B2   B   0.611136602022177   0.555618847168652   0.875000000000000   1.0000000
B2   B   0.444438613680899   0.055507584042715   0.875000000000000   1.0000000
B2   B   0.944486650512567   0.555573737254584   0.875000000000000   1.0000000
B2   B   0.110888629814573   0.555370122750480   0.375000000000000   1.0000000
B2   B   0.777792531692308   0.055547447776914   0.875000000000000   1.0000000
B2   B   0.278032642751276   0.055902128706189   0.375000000000000   1.0000000
B2   B   0.447231793989456   0.557693549343634   0.375000000000000   1.0000000
B2   B   0.776576071579318   0.556025041682136   0.375000000000000   1.0000000
B2   B   0.611430358971127   0.055791418697438   0.375000000000000   1.0000000
B2   B   0.444432782677349   0.555597891574928   0.875000000000000   1.0000000
B2   B   0.944134886499549   0.055375893678370   0.375000000000000   1.0000000
B2   B   0.277778575740099   0.722233478131371   0.875000000000000   1.0000000
B2   B   0.111051764951654   0.222189144137240   0.875000000000000   1.0000000
B2   B   0.444410181017999   0.222168300550470   0.875000000000000   1.0000000
B2   B   0.611138421343019   0.722293827896178   0.875000000000000   1.0000000
B2   B   0.944478890776759   0.722266823654810   0.875000000000000   1.0000000
B2   B   0.777809034606666   0.222186303080227   0.875000000000000   1.0000000
B2   B   0.110856842658764   0.722073540627538   0.375000000000000   1.0000000
B2   B   0.444797689930939   0.722338412262464   0.375000000000000   1.0000000
B2   B   0.275138421492275   0.222149231289512   0.375000000000000   1.0000000
B2   B   0.778321204781222   0.723580600098883   0.375000000000000   1.0000000
B2   B   0.613169145808105   0.222294686991416   0.375000000000000   1.0000000
B2   B   0.944209409151152   0.221970014832998   0.375000000000000   1.0000000
B2   B   0.111080647661039   0.388873077916721   0.875000000000000   1.0000000
B2   B   0.277770485571629   0.888874563848183   0.875000000000000   1.0000000
B2   B   0.611133105338381   0.888915767029884   0.875000000000000   1.0000000
B2   B   0.444406889538763   0.388884504085277   0.875000000000000   1.0000000
B2   B   0.944451918303660   0.888921636782579   0.875000000000000   1.0000000
B2   B   0.111062673118918   0.888898033954704   0.375000000000000   1.0000000
B2   B   0.777829858573205   0.388877909350387   0.875000000000000   1.0000000
B2   B   0.444595435577527   0.889043259075634   0.375000000000000   1.0000000
B2   B   0.275735797836195   0.386059263006242   0.375000000000000   1.0000000
B2   B   0.277888538578656   0.555458121697455   0.375000000000000   1.0000000
B2   B   0.778125669769382   0.889544943733263   0.375000000000000   1.0000000
B2   B   0.943922340276057   0.388600772240753   0.375000000000000   1.0000000
B2   B   0.111115223350962   0.555559349131275   0.875000000000000   1.0000000
B2   B   0.277732068534979   0.055510026885053   0.875000000000000   1.0000000
B2   B   0.777834209540553   0.555606737404901   0.875000000000000   1.0000000
B2   B   0.611132517446980   0.055526014933137   0.875000000000000   1.0000000
B2   B   0.944427704878701   0.055550253932517   0.875000000000000   1.0000000
B2   B   0.055471632835204   0.111041888279025   0.124742961639679   1.0000000
B2   B   0.555541060027080   0.611311942596652   0.124696894793059   1.0000000
B2   B   0.388749510288789   0.110834151386115   0.124766270993292   1.0000000
B2   B   0.889137397810376   0.611254779449302   0.124749406168148   1.0000000
B2   B   0.722227629143385   0.111030393272190   0.124743904044701   1.0000000
B2   B   0.055645770130819   0.777792859073278   0.625225789713378   1.0000000
B2   B   0.388820150307721   0.777786900095803   0.625219937704375   1.0000000
B2   B   0.222049339134106   0.277726785192149   0.625321927535032   1.0000000
B2   B   0.722278557623133   0.777912349505408   0.625285840717195   1.0000000
B2   B   0.555552701866262   0.277622282702105   0.625485517873945   1.0000000
B2   B   0.888963418954482   0.277791663098676   0.625251573187882   1.0000000
B2   B   0.222214213944545   0.777748987651340   0.124791305365415   1.0000000
B2   B   0.055497915396556   0.277789427850452   0.124738356500801   1.0000000
B2   B   0.388721921813078   0.277655924872137   0.124775785830843   1.0000000
B2   B   0.555514883554543   0.777872419578535   0.124733848431511   1.0000000
B2   B   0.889019051603513   0.777870261433597   0.124742246191805   1.0000000
B2   B   0.722339937882207   0.277707096900165   0.124684187818606   1.0000000
B2   B   0.055542964535968   0.944377834970673   0.625231331869605   1.0000000
B2   B   0.388798435081548   0.944273187320462   0.625233116248462   1.0000000
B2   B   0.222117257644003   0.444533098498494   0.625261492333113   1.0000000
B2   B   0.555540243627142   0.444517524839629   0.625423724262897   1.0000000
B2   B   0.722213278129733   0.944456459786076   0.625228720983055   1.0000000
B2   B   0.889107730400805   0.444540754469652   0.625251589724870   1.0000000
B2   B   0.055605688807579   0.444530054447600   0.124763671629556   1.0000000
B2   B   0.222153533370732   0.944286144481725   0.124759552343059   1.0000000
B2   B   0.555498806153112   0.944368523180387   0.124770253393743   1.0000000
B2   B   0.388756271941674   0.444532344307552   0.124771532469356   1.0000000
B2   B   0.888904672846903   0.944457716945517   0.124779658947579   1.0000000
B2   B   0.722429365714584   0.444531082542851   0.124525228694915   1.0000000
B2   B   0.222198222068212   0.611191979663682   0.625229897076675   1.0000000
B2   B   0.055471632835204   0.111041888279025   0.625257038360320   1.0000000
B2   B   0.555541060027080   0.611311942596652   0.625303105206941   1.0000000
B2   B   0.388749510288789   0.110834151386115   0.625233729006708   1.0000000
B2   B   0.889137397810376   0.611254779449302   0.625250593831852   1.0000000
B2   B   0.055686197099425   0.611198330217086   0.124771744200452   1.0000000
B2   B   0.722227629143385   0.111030393272190   0.625256095955299   1.0000000
B2   B   0.222071747032442   0.110921220132311   0.124729673038273   1.0000000
B2   B   0.388795218393759   0.611245890516486   0.124732725936208   1.0000000
B2   B   0.722396258735509   0.611311598301292   0.124708092811396   1.0000000
B2   B   0.555502365062120   0.110893388371014   0.124731687324223   1.0000000
B2   B   0.388795218393759   0.611245890516486   0.625267274063792   1.0000000
B2   B   0.888877091293685   0.111091040375253   0.124777510612442   1.0000000
B2   B   0.222214213944545   0.777748987651340   0.625208694634585   1.0000000
B2   B   0.055497915396556   0.277789427850452   0.625261643499198   1.0000000
B2   B   0.388721921813078   0.277655924872137   0.625224214169157   1.0000000
B2   B   0.555514883554543   0.777872419578535   0.625266151568489   1.0000000
B2   B   0.889019051603513   0.777870261433597   0.625257753808195   1.0000000
B2   B   0.722339937882207   0.277707096900165   0.625315812181395   1.0000000
B2   B   0.055645770130819   0.777792859073278   0.124774210286621   1.0000000
B2   B   0.388820150307721   0.777786900095803   0.124780062295625   1.0000000
B2   B   0.222049339134106   0.277726785192149   0.124678072464968   1.0000000
B2   B   0.722278557623133   0.777912349505408   0.124714159282804   1.0000000
B2   B   0.555552701866262   0.277622282702105   0.124514482126055   1.0000000
B2   B   0.888963418954482   0.277791663098676   0.124748426812118   1.0000000
B2   B   0.055605688807579   0.444530054447600   0.625236328370444   1.0000000
B2   B   0.222153533370732   0.944286144481725   0.625240447656940   1.0000000
B2   B   0.555498806153112   0.944368523180387   0.625229746606257   1.0000000
B2   B   0.388756271941674   0.444532344307552   0.625228467530643   1.0000000
B2   B   0.888904672846903   0.944457716945517   0.625220341052420   1.0000000
B2   B   0.055542964535968   0.944377834970673   0.124768668130395   1.0000000
B2   B   0.722429365714584   0.444531082542851   0.625474771305085   1.0000000
B2   B   0.388798435081548   0.944273187320462   0.124766883751538   1.0000000
B2   B   0.222117257644003   0.444533098498494   0.124738507666887   1.0000000
B2   B   0.222198222068212   0.611191979663682   0.124770102923325   1.0000000
B2   B   0.555540243627142   0.444517524839629   0.124576275737102   1.0000000
B2   B   0.722213278129733   0.944456459786076   0.124771279016945   1.0000000
B2   B   0.889107730400805   0.444540754469652   0.124748410275131   1.0000000
B2   B   0.055686197099425   0.611198330217086   0.625228255799549   1.0000000
B2   B   0.222071747032442   0.110921220132311   0.625270326961727   1.0000000
B2   B   0.722396258735509   0.611311598301292   0.625291907188605   1.0000000
B2   B   0.555502365062120   0.110893388371014   0.625268312675777   1.0000000
B2   B   0.888877091293685   0.111091040375253   0.625222489387558   1.0000000


