data_1
_audit_creation_method   'vasp2cif'
_cell_length_a    17.52789999999977
_cell_length_b    17.52789999999977
_cell_length_c    15.0
_cell_angle_alpha    90.0
_cell_angle_beta    90.0
_cell_angle_gamma    119.99999999999916

_symmetry_space_group_name_H-M    'P 1'
loop_
_atom_site_label
_atom_site_type_symbol
_atom_site_fract_x
_atom_site_fract_y
_atom_site_fract_z
_atom_site_occupancy
B2   B   0.904841007610674   0.952241865889929   0.115045258160131   1.0000000
B2   B   0.905039638737504   0.095313012367743   0.115067594109364   1.0000000
B2   B   0.904846356571755   0.238113518312028   0.114831788118469   1.0000000
B2   B   0.904742814243162   0.380928867824245   0.115730295493467   1.0000000
B2   B   0.904732215007339   0.523754810702678   0.116139977473010   1.0000000
B2   B   0.904740765324492   0.666606603380626   0.114545587394383   1.0000000
B2   B   0.904806300764133   0.809413788752543   0.113577842023778   1.0000000
B2   B   0.047550162378020   0.952155481323496   0.115377374065461   1.0000000
B2   B   0.047614648035400   0.094970218407493   0.114788512225077   1.0000000
B2   B   0.047516088741876   0.237750598639457   0.113814742307460   1.0000000
B2   B   0.047438700804403   0.380722919611735   0.114737616646479   1.0000000
B2   B   0.047387763069147   0.523639877892891   0.116088311281505   1.0000000
B2   B   0.047377025731561   0.666562784710766   0.115859747212709   1.0000000
B2   B   0.047525375763683   0.809378243757371   0.115250789835900   1.0000000
B2   B   0.190303139217375   0.952110143555444   0.114043958803849   1.0000000
B2   B   0.190307580365012   0.094782204505709   0.112140626954033   1.0000000
B2   B   0.190315592831871   0.237477780348451   0.110174054816897   1.0000000
B2   B   0.189821755375732   0.380002837469469   0.111661333009217   1.0000000
B2   B   0.190001722931175   0.523441397216101   0.115929049020833   1.0000000
B2   B   0.189898424693974   0.666647849757790   0.116227902855247   1.0000000
B2   B   0.190251212386500   0.809454763474717   0.115093960444942   1.0000000
B2   B   0.333199163994590   0.952374697308977   0.114654563806114   1.0000000
B2   B   0.333163573769826   0.094869023870625   0.111748072835747   1.0000000
B2   B   0.332976880945309   0.237164094580088   0.103760474115004   1.0000000
B2   B   0.332493992493965   0.379175683046885   0.098093816718342   1.0000000
B2   B   0.332313302298726   0.522371017062937   0.107891779147800   1.0000000
B2   B   0.332828092791651   0.667897761669862   0.115915420177012   1.0000000
B2   B   0.333034180487423   0.809855100122408   0.115252719751207   1.0000000
B2   B   0.476235817312153   0.953028400018604   0.115851562340048   1.0000000
B2   B   0.476173722011969   0.095280722030335   0.114545954120231   1.0000000
B2   B   0.476052058625700   0.237522870732924   0.110109131247836   1.0000000
B2   B   0.475887030752490   0.378759540272271   0.095889061524322   1.0000000
B2   B   0.475385818580167   0.810417603520621   0.116259009952143   1.0000000
B2   B   0.619546559472812   0.952938875854016   0.115148412875120   1.0000000
B2   B   0.619241939602509   0.095513791876461   0.115578416159454   1.0000000
B2   B   0.619118758836872   0.238126929038817   0.114818169567285   1.0000000
B2   B   0.619225692527463   0.380814916563881   0.110420057795233   1.0000000
B2   B   0.620949928853043   0.524379316819593   0.097499961059905   1.0000000
B2   B   0.618777635105338   0.666813341061915   0.092263247377877   1.0000000
B2   B   0.621289328971965   0.810146825187561   0.111412536882565   1.0000000
B2   B   0.762736728664390   0.952951738259763   0.113792463780554   1.0000000
B2   B   0.762201954182394   0.095521586979390   0.115020791713266   1.0000000
B2   B   0.762014872090104   0.238213473858515   0.115547461290524   1.0000000
B2   B   0.761983271650908   0.380987316091251   0.115677394203510   1.0000000
B2   B   0.762194283426545   0.523903884281168   0.112746705136364   1.0000000
B2   B   0.762160767336980   0.666698267668001   0.106165374667349   1.0000000
B2   B   0.762074151049660   0.809365101012790   0.109161850544178   1.0000000
N2   N   0.952485490761634   0.904647089301254   0.115444540695710   1.0000000
N2   N   0.952555824600650   0.047576776732694   0.115651258660338   1.0000000
N2   N   0.952517498161641   0.190495662183304   0.114656660147733   1.0000000
N2   N   0.952331150655098   0.333284443649554   0.114956517109154   1.0000000
N2   N   0.952226658913311   0.476077340377174   0.116088042586359   1.0000000
N2   N   0.952212132782825   0.618907461058841   0.115974062716069   1.0000000
N2   N   0.952391722255583   0.761770436250698   0.114851993153712   1.0000000
N2   N   0.095179434403458   0.904597648463756   0.115005353069684   1.0000000
N2   N   0.095274179845695   0.047427220169939   0.114742839993881   1.0000000
N2   N   0.095336841248017   0.190266765856470   0.113445190870247   1.0000000
N2   N   0.094945010624536   0.332844844389097   0.113392840318577   1.0000000
N2   N   0.094857746018852   0.475841821844701   0.115793655216674   1.0000000
N2   N   0.094774913506273   0.618834962093349   0.116121762351099   1.0000000
N2   N   0.095054989313264   0.761768612187460   0.115317189714064   1.0000000
N2   N   0.237956392444819   0.904690912111149   0.114366470678716   1.0000000
N2   N   0.238013357529916   0.047376890311775   0.112477158032602   1.0000000
N2   N   0.238051245799392   0.190058444615269   0.108537296952355   1.0000000
N2   N   0.238162901852397   0.332822118422639   0.108176244451755   1.0000000
N2   N   0.236833430152945   0.474711151084437   0.113549665183020   1.0000000
N2   N   0.236925377413565   0.618655625602017   0.116729739921744   1.0000000
N2   N   0.237755076442986   0.761915582944589   0.115503862529077   1.0000000
N2   N   0.380865686944967   0.905092029271335   0.115446712384166   1.0000000
N2   N   0.380917662845305   0.047642920228835   0.113917876940945   1.0000000
N2   N   0.380867051087293   0.190146752259842   0.108367003047976   1.0000000
N2   N   0.380702050346857   0.332315110917165   0.094649576765450   1.0000000
N2   N   0.379087504953521   0.474728695553398   0.092941964132774   1.0000000
N2   N   0.370482574119815   0.613257066777770   0.117210458814613   1.0000000
N2   N   0.380520858382347   0.762459683276719   0.115120011181938   1.0000000
N2   N   0.524235188932593   0.906267977994382   0.116087217717516   1.0000000
N2   N   0.523978002555048   0.048159746212434   0.115595213735014   1.0000000
N2   N   0.523832786754043   0.190501170870793   0.113846394755970   1.0000000
N2   N   0.523805858276052   0.332787516492887   0.107223493875101   1.0000000
N2   N   0.525559088015189   0.473544817889008   0.086171879433921   1.0000000
N2   N   0.527105243774148   0.622012349520092   0.074215128136130   1.0000000
N2   N   0.529960676207395   0.773198743202214   0.120161561483474   1.0000000
N2   N   0.668040419102418   0.906173002793525   0.113444359721004   1.0000000
N2   N   0.667067653269655   0.048225578375244   0.115312672394134   1.0000000
N2   N   0.666798964452078   0.190753184757612   0.115593223032349   1.0000000
N2   N   0.666666755181038   0.333375803777391   0.114515627354797   1.0000000
N2   N   0.666797815791184   0.476024156591229   0.109050127950952   1.0000000
N2   N   0.667535114364893   0.619075555045635   0.096392612683894   1.0000000
N2   N   0.667359634999402   0.761677906768912   0.104617423698388   1.0000000
N2   N   0.809853237238946   0.904780367920407   0.113343160043079   1.0000000
N2   N   0.810067707103377   0.048133983881282   0.114795169459735   1.0000000
N2   N   0.809714937739839   0.190736979894691   0.115087639708452   1.0000000
N2   N   0.809535647794097   0.333417848742826   0.115950847517742   1.0000000
N2   N   0.809484066643527   0.476136228214142   0.115855005549562   1.0000000
N2   N   0.809577576032803   0.618928947122900   0.111834958838100   1.0000000
N2   N   0.809862608013177   0.761828295323375   0.109428949642680   1.0000000
S2   S   0.477451111843409   0.526899994096467   0.040626500928343   1.0000000


