data_1
_audit_creation_method   'vasp2cif'
_cell_length_a    14.93631414619966
_cell_length_b    14.936314146199727
_cell_length_c    13.341276283792837
_cell_angle_alpha    90.0
_cell_angle_beta    90.0
_cell_angle_gamma    119.99999999999984

_symmetry_space_group_name_H-M    'P 1'
loop_
_atom_site_label
_atom_site_type_symbol
_atom_site_fract_x
_atom_site_fract_y
_atom_site_fract_z
_atom_site_occupancy
C2   C   0.391897405386137   0.447690744483429   0.375000000000000   1.0000000
C2   C   0.451942837001431   0.403885674002863   0.375000000000000   1.0000000
C2   C   0.555793339097291   0.447690744483429   0.375000000000000   1.0000000
N2   N   0.111126914890085   0.055578916224631   0.124953894612715   1.0000000
N2   N   0.611141191236977   0.555624805371381   0.124299589357965   1.0000000
N2   N   0.444452001334545   0.055578916224631   0.124953894612715   1.0000000
N2   N   0.944431047224014   0.555544002406713   0.124899589486074   1.0000000
N2   N   0.777800060068906   0.055600120137811   0.124889777374664   1.0000000
N2   N   0.111106366802207   0.722212733604408   0.625106311116039   1.0000000
N2   N   0.444481044348202   0.722262297487664   0.625163108641566   1.0000000
N2   N   0.277812346045403   0.222243253707407   0.625133632021662   1.0000000
N2   N   0.777781253139462   0.722262297487664   0.625163108641566   1.0000000
N2   N   0.611115096451221   0.222233142794820   0.625052821676129   1.0000000
N2   N   0.944449265491408   0.222236013291191   0.625114330740613   1.0000000
N2   N   0.277794598415124   0.722221663284516   0.124914403329368   1.0000000
N2   N   0.111118046343606   0.222233142794820   0.124947178323870   1.0000000
N2   N   0.444430907662004   0.222243253707407   0.124866367978339   1.0000000
N2   N   0.611137883767406   0.722275767534804   0.124788822731902   1.0000000
N2   N   0.944427064869389   0.722221663284516   0.124914403329368   1.0000000
N2   N   0.777786747799783   0.222236013291191   0.124885669259387   1.0000000
N2   N   0.111106852636375   0.888895507942534   0.625085805221148   1.0000000
N2   N   0.444470822668598   0.888920948521414   0.625107609180493   1.0000000
N2   N   0.277736148963434   0.388857543394399   0.625385643195554   1.0000000
N2   N   0.611121394430971   0.388857543394399   0.625385643195554   1.0000000
N2   N   0.777803625570920   0.888946752587127   0.625113539024004   1.0000000
N2   N   0.944443649373473   0.388887298746947   0.625107226040045   1.0000000
N2   N   0.111105849813416   0.388881938111940   0.124896070700669   1.0000000
N2   N   0.277788655306167   0.888895507942534   0.124914194778851   1.0000000
N2   N   0.611143127016215   0.888946752587127   0.124886460975996   1.0000000
N2   N   0.444446265802007   0.388892531604015   0.123894467210338   1.0000000
N2   N   0.944450125852816   0.888920948521414   0.124892390819508   1.0000000
N2   N   0.777776088298531   0.388881938111940   0.124896070700669   1.0000000
N2   N   0.277795791479642   0.555552654468889   0.625093564052962   1.0000000
N2   N   0.111126914890085   0.055578916224631   0.625046105387285   1.0000000
N2   N   0.611141191236977   0.555624805371381   0.625700410642035   1.0000000
N2   N   0.444452001334545   0.055578916224631   0.625046105387285   1.0000000
N2   N   0.944431047224014   0.555544002406713   0.625100410513925   1.0000000
N2   N   0.111112955182699   0.555544002406713   0.124899589486074   1.0000000
N2   N   0.777800060068906   0.055600120137811   0.625110222625336   1.0000000
N2   N   0.277782757496428   0.055565514992855   0.125024609934689   1.0000000
N2   N   0.444483614134404   0.555624805371381   0.124299589357965   1.0000000
N2   N   0.777756862989247   0.555552654468889   0.124906435947037   1.0000000
N2   N   0.611126743267240   0.055592911319468   0.124917016367257   1.0000000
N2   N   0.444483614134404   0.555624805371381   0.625700410642035   1.0000000
N2   N   0.944466168052228   0.055592911319468   0.124917016367257   1.0000000
N2   N   0.277794598415124   0.722221663284516   0.625085596670632   1.0000000
N2   N   0.111118046343606   0.222233142794820   0.625052821676129   1.0000000
N2   N   0.444430907662004   0.222243253707407   0.625133632021662   1.0000000
N2   N   0.611137883767406   0.722275767534804   0.625211177268098   1.0000000
N2   N   0.944427064869389   0.722221663284516   0.625085596670632   1.0000000
N2   N   0.777786747799783   0.222236013291191   0.625114330740613   1.0000000
N2   N   0.111106366802207   0.722212733604408   0.124893688883961   1.0000000
N2   N   0.444481044348202   0.722262297487664   0.124836891358434   1.0000000
N2   N   0.277812346045403   0.222243253707407   0.124866367978339   1.0000000
N2   N   0.777781253139462   0.722262297487664   0.124836891358434   1.0000000
N2   N   0.611115096451221   0.222233142794820   0.124947178323870   1.0000000
N2   N   0.944449265491408   0.222236013291191   0.124885669259387   1.0000000
N2   N   0.111105849813416   0.388881938111940   0.625103929299330   1.0000000
N2   N   0.277788655306167   0.888895507942534   0.625085805221148   1.0000000
N2   N   0.611143127016215   0.888946752587127   0.625113539024004   1.0000000
N2   N   0.444446265802007   0.388892531604015   0.626105532789663   1.0000000
N2   N   0.944450125852816   0.888920948521414   0.625107609180493   1.0000000
N2   N   0.111106852636375   0.888895507942534   0.124914194778851   1.0000000
N2   N   0.777776088298531   0.388881938111940   0.625103929299330   1.0000000
N2   N   0.444470822668598   0.888920948521414   0.124892390819508   1.0000000
N2   N   0.277736148963434   0.388857543394399   0.124614356804446   1.0000000
N2   N   0.277795791479642   0.555552654468889   0.124906435947037   1.0000000
N2   N   0.611121394430971   0.388857543394399   0.124614356804446   1.0000000
N2   N   0.777803625570920   0.888946752587127   0.124886460975996   1.0000000
N2   N   0.944443649373473   0.388887298746947   0.124892773959954   1.0000000
N2   N   0.111112955182699   0.555544002406713   0.625100410513925   1.0000000
N2   N   0.277782757496428   0.055565514992855   0.624975390065311   1.0000000
N2   N   0.777756862989247   0.555552654468889   0.625093564052962   1.0000000
N2   N   0.611126743267240   0.055592911319468   0.625082983632743   1.0000000
N2   N   0.944466168052228   0.055592911319468   0.625082983632743   1.0000000
N2   N   0.057106351971170   0.110412050875299   0.375000000000000   1.0000000
N2   N   0.559349393660618   0.618698787321234   0.375000000000000   1.0000000
N2   N   0.385261727998441   0.107393639721275   0.375000000000000   1.0000000
N2   N   0.887800344752162   0.609640838848261   0.375000000000000   1.0000000
N2   N   0.721787155682219   0.111788869983199   0.375000000000000   1.0000000
N2   N   0.055562473718861   0.777785714127429   0.875000000000000   1.0000000
N2   N   0.388887057623072   0.777786098296347   0.875000000000000   1.0000000
N2   N   0.222224930070871   0.277779397215204   0.875000000000000   1.0000000
N2   N   0.722226014414537   0.777779925864164   0.875000000000000   1.0000000
N2   N   0.555554467144332   0.277779397215204   0.875000000000000   1.0000000
N2   N   0.888894242460191   0.277788484920389   0.875000000000000   1.0000000
N2   N   0.221006696327513   0.775331013096634   0.375000000000000   1.0000000
N2   N   0.058374616065964   0.276660433804434   0.375000000000000   1.0000000
N2   N   0.556609741688707   0.781396065132081   0.375000000000000   1.0000000
N2   N   0.890232312269930   0.778676566268755   0.375000000000000   1.0000000
N2   N   0.718285817738469   0.276660433804434   0.375000000000000   1.0000000
N2   N   0.055558141638258   0.944446859306386   0.875000000000000   1.0000000
N2   N   0.388888717668127   0.944446859306386   0.875000000000000   1.0000000
N2   N   0.222225284756178   0.444455541818556   0.875000000000000   1.0000000
N2   N   0.555560827137939   0.444451823120351   0.875000000000000   1.0000000
N2   N   0.722222674240597   0.944445348481195   0.875000000000000   1.0000000
N2   N   0.888897633378938   0.444457143239534   0.875000000000000   1.0000000
N2   N   0.055200770335301   0.442878775123563   0.375000000000000   1.0000000
N2   N   0.220023253935183   0.940046507870365   0.375000000000000   1.0000000
N2   N   0.555334091146762   0.945805358459072   0.375000000000000   1.0000000
N2   N   0.890471267312311   0.945805358459072   0.375000000000000   1.0000000
N2   N   0.720512454523807   0.442717190348750   0.375000000000000   1.0000000
N2   N   0.222219327219315   0.611121622817208   0.875000000000000   1.0000000
N2   N   0.055557532361719   0.111110637187984   0.875000000000000   1.0000000
N2   N   0.555557820050888   0.611115640101776   0.875000000000000   1.0000000
N2   N   0.388886863055925   0.111106214112393   0.875000000000000   1.0000000
N2   N   0.888902295597886   0.611121622817208   0.875000000000000   1.0000000
N2   N   0.054526394682224   0.609052789364447   0.375000000000000   1.0000000
N2   N   0.722220850061798   0.111113519295982   0.875000000000000   1.0000000
N2   N   0.222131911722827   0.107393639721275   0.375000000000000   1.0000000
N2   N   0.389681809351999   0.614804158213125   0.375000000000000   1.0000000
N2   N   0.725122348861120   0.614804158213125   0.375000000000000   1.0000000
N2   N   0.553305698904129   0.110412050875299   0.375000000000000   1.0000000
N2   N   0.388885494779222   0.611119509517688   0.875000000000000   1.0000000
N2   N   0.890001714300972   0.111788869983199   0.375000000000000   1.0000000
N2   N   0.222223240408569   0.777785714127429   0.875000000000000   1.0000000
N2   N   0.055560605235426   0.277785219583293   0.875000000000000   1.0000000
N2   N   0.388887429212106   0.277774858424218   0.875000000000000   1.0000000
N2   N   0.555553911449626   0.777779925864164   0.875000000000000   1.0000000
N2   N   0.888899040673268   0.777786098296347   0.875000000000000   1.0000000
N2   N   0.722224614347868   0.277785219583293   0.875000000000000   1.0000000
N2   N   0.054324316769122   0.775331013096634   0.375000000000000   1.0000000
N2   N   0.388444253998819   0.778676566268755   0.375000000000000   1.0000000
N2   N   0.228991517454743   0.273698318829722   0.375000000000000   1.0000000
N2   N   0.724786323443374   0.781396065132081   0.375000000000000   1.0000000
N2   N   0.544706801374979   0.273698318829722   0.375000000000000   1.0000000
N2   N   0.888563758046391   0.277127516092790   0.375000000000000   1.0000000
N2   N   0.055559509860595   0.444457143239534   0.875000000000000   1.0000000
N2   N   0.222222861273118   0.944445722546235   0.875000000000000   1.0000000
N2   N   0.555552560655492   0.944447196717258   0.875000000000000   1.0000000
N2   N   0.388890995982412   0.444451823120351   0.875000000000000   1.0000000
N2   N   0.888894636061766   0.944447196717258   0.875000000000000   1.0000000
N2   N   0.055692921507650   0.943165258578073   0.375000000000000   1.0000000
N2   N   0.722230257062379   0.444455541818556   0.875000000000000   1.0000000
N2   N   0.387472337070422   0.943165258578073   0.375000000000000   1.0000000
N2   N   0.222204735824944   0.442717190348750   0.375000000000000   1.0000000
N2   N   0.221840494096093   0.609640838848261   0.375000000000000   1.0000000
N2   N   0.723299289149267   0.946598578298535   0.375000000000000   1.0000000
N2   N   0.887678004788262   0.442878775123563   0.375000000000000   1.0000000
N2   N   0.055560444553431   0.611120889106862   0.875000000000000   1.0000000
N2   N   0.222219351056461   0.111106214112393   0.875000000000000   1.0000000
N2   N   0.722234014738458   0.611119509517688   0.875000000000000   1.0000000
N2   N   0.555553104826265   0.111110637187984   0.875000000000000   1.0000000
N2   N   0.888892669234176   0.111113519295982   0.875000000000000   1.0000000
B2   B   0.111497798513588   0.054115287972189   0.375000000000000   1.0000000
B2   B   0.613751740623644   0.562096850838210   0.375000000000000   1.0000000
B2   B   0.442617489458600   0.054115287972189   0.375000000000000   1.0000000
B2   B   0.943141804143274   0.553915949553900   0.375000000000000   1.0000000
B2   B   0.778599523870558   0.057199047741116   0.375000000000000   1.0000000
B2   B   0.111109645119370   0.722219290238732   0.875000000000000   1.0000000
B2   B   0.444434568271595   0.722172466655173   0.875000000000000   1.0000000
B2   B   0.277829802092957   0.222281791235579   0.875000000000000   1.0000000
B2   B   0.777737898383577   0.722172466655173   0.875000000000000   1.0000000
B2   B   0.611091152068961   0.222265993216343   0.875000000000000   1.0000000
B2   B   0.944475563817588   0.222249040277489   0.875000000000000   1.0000000
B2   B   0.277288121023587   0.720634397676805   0.375000000000000   1.0000000
B2   B   0.116588464201930   0.221352701022461   0.375000000000000   1.0000000
B2   B   0.429246315260553   0.217686225408875   0.375000000000000   1.0000000
B2   B   0.613663101295705   0.727326202591403   0.375000000000000   1.0000000
B2   B   0.943346276653218   0.720634397676805   0.375000000000000   1.0000000
B2   B   0.776230549087981   0.222673574262213   0.375000000000000   1.0000000
B2   B   0.111113612037866   0.888895553304970   0.875000000000000   1.0000000
B2   B   0.444436780624698   0.888874852518368   0.875000000000000   1.0000000
B2   B   0.277853771188825   0.388928784205707   0.875000000000000   1.0000000
B2   B   0.611075013016890   0.388928784205707   0.875000000000000   1.0000000
B2   B   0.777757952930678   0.888847714083511   0.875000000000000   1.0000000
B2   B   0.944457645268776   0.388915290537552   0.875000000000000   1.0000000
B2   B   0.112085909427548   0.387981028095562   0.375000000000000   1.0000000
B2   B   0.276507709672240   0.885941423583207   0.375000000000000   1.0000000
B2   B   0.611902384918738   0.891395145203434   0.375000000000000   1.0000000
B2   B   0.945132754431070   0.889160954313501   0.375000000000000   1.0000000
B2   B   0.775895118668021   0.387981028095562   0.375000000000000   1.0000000
B2   B   0.277811511858543   0.555547918283515   0.875000000000000   1.0000000
B2   B   0.111140424536230   0.055583056243641   0.875000000000000   1.0000000
B2   B   0.611069669494931   0.555516510662762   0.875000000000000   1.0000000
B2   B   0.444442631707411   0.055583056243641   0.875000000000000   1.0000000
B2   B   0.944432746662928   0.555561966170536   0.875000000000000   1.0000000
B2   B   0.110774145410627   0.553915949553900   0.375000000000000   1.0000000
B2   B   0.777775235859304   0.055550471718606   0.875000000000000   1.0000000
B2   B   0.274917526156615   0.049835052313229   0.375000000000000   1.0000000
B2   B   0.448345110214566   0.562096850838210   0.375000000000000   1.0000000
B2   B   0.775894135467301   0.554607392325536   0.375000000000000   1.0000000
B2   B   0.610457757181712   0.056499451992712   0.375000000000000   1.0000000
B2   B   0.444446841167831   0.555516510662762   0.875000000000000   1.0000000
B2   B   0.946041694811000   0.056499451992712   0.375000000000000   1.0000000
B2   B   0.277784723717148   0.722207457776162   0.875000000000000   1.0000000
B2   B   0.111174841147388   0.222265993216343   0.875000000000000   1.0000000
B2   B   0.444451989142622   0.222281791235579   0.875000000000000   1.0000000
B2   B   0.611074632965787   0.722149265931566   0.875000000000000   1.0000000
B2   B   0.944422734059014   0.722207457776162   0.875000000000000   1.0000000
B2   B   0.777773476459900   0.222249040277489   0.875000000000000   1.0000000
B2   B   0.109931443362987   0.719862886725967   0.375000000000000   1.0000000
B2   B   0.444980295592054   0.724499631611247   0.375000000000000   1.0000000
B2   B   0.288439910148322   0.217686225408875   0.375000000000000   1.0000000
B2   B   0.779519336019193   0.724499631611247   0.375000000000000   1.0000000
B2   B   0.604764236820538   0.221352701022461   0.375000000000000   1.0000000
B2   B   0.946443025174232   0.222673574262213   0.375000000000000   1.0000000
B2   B   0.111167309492432   0.388919660533148   0.875000000000000   1.0000000
B2   B   0.277781941267111   0.888895553304970   0.875000000000000   1.0000000
B2   B   0.611089761152841   0.888847714083511   0.875000000000000   1.0000000
B2   B   0.444467114725772   0.388934229451543   0.875000000000000   1.0000000
B2   B   0.944438071893670   0.888874852518368   0.875000000000000   1.0000000
B2   B   0.109433713910973   0.885941423583207   0.375000000000000   1.0000000
B2   B   0.777752351040722   0.388919660533148   0.875000000000000   1.0000000
B2   B   0.444028199882431   0.889160954313501   0.375000000000000   1.0000000
B2   B   0.278633583685734   0.386264239864199   0.375000000000000   1.0000000
B2   B   0.278713256858235   0.554607392325536   0.375000000000000   1.0000000
B2   B   0.607630656178471   0.386264239864199   0.375000000000000   1.0000000
B2   B   0.779492760284702   0.891395145203434   0.375000000000000   1.0000000
B2   B   0.944018333938983   0.388036667877966   0.375000000000000   1.0000000
B2   B   0.111129219507608   0.555561966170536   0.875000000000000   1.0000000
B2   B   0.277796837190589   0.055593674381178   0.875000000000000   1.0000000
B2   B   0.777736406424972   0.555547918283515   0.875000000000000   1.0000000
B2   B   0.611098307712480   0.055561094469129   0.875000000000000   1.0000000
B2   B   0.944462786756648   0.055561094469129   0.875000000000000   1.0000000
B2   B   0.055638586616701   0.111227618579900   0.125126117845728   1.0000000
B2   B   0.555469804369961   0.610939608739920   0.125120163914582   1.0000000
B2   B   0.388973286775708   0.111315878098637   0.125180726064600   1.0000000
B2   B   0.888710976748139   0.611015065525070   0.125157727587644   1.0000000
B2   B   0.722239874063815   0.111165309305840   0.125054482322858   1.0000000
B2   B   0.055492655813990   0.777739695445825   0.624959311909368   1.0000000
B2   B   0.388956542693691   0.777723168158947   0.624907983664013   1.0000000
B2   B   0.222403848563121   0.277966959767636   0.624711445033442   1.0000000
B2   B   0.722134368459773   0.777700438343418   0.624886540555969   1.0000000
B2   B   0.555563111204516   0.277966959767636   0.624711445033442   1.0000000
B2   B   0.888898230172941   0.277796460345889   0.624923891896369   1.0000000
B2   B   0.222247039631835   0.777739695445825   0.125040688090633   1.0000000
B2   B   0.055647185540744   0.277826937181479   0.125160554919688   1.0000000
B2   B   0.389068363360858   0.278136726721722   0.125129239848351   1.0000000
B2   B   0.555566069883643   0.777700438343418   0.125113459444030   1.0000000
B2   B   0.888766625465249   0.777723168158947   0.125092016335987   1.0000000
B2   B   0.722179751640735   0.277826937181479   0.125160554919688   1.0000000
B2   B   0.055560871170754   0.944507711301490   0.624940791012517   1.0000000
B2   B   0.388946840130736   0.944507711301490   0.624940791012517   1.0000000
B2   B   0.222375499379511   0.444395066884442   0.624731662762419   1.0000000
B2   B   0.555413474981569   0.444431418753740   0.624060926122986   1.0000000
B2   B   0.722225503050492   0.944451006100985   0.624941910939422   1.0000000
B2   B   0.888807440669243   0.444402951596273   0.624886341160587   1.0000000
B2   B   0.055595510927030   0.444402951596273   0.125113658839413   1.0000000
B2   B   0.222256128360687   0.944512256721373   0.125054814142655   1.0000000
B2   B   0.555591466233595   0.944466636003968   0.125056277721276   1.0000000
B2   B   0.389017943772171   0.444431418753740   0.125939073877015   1.0000000
B2   B   0.888875169770373   0.944466636003968   0.125056277721276   1.0000000
B2   B   0.722019567504932   0.444395066884442   0.125268337237580   1.0000000
B2   B   0.222304088776924   0.611015065525070   0.624842272412356   1.0000000
B2   B   0.055638586616701   0.111227618579900   0.624873882154272   1.0000000
B2   B   0.555469804369961   0.610939608739920   0.624879836085418   1.0000000
B2   B   0.388973286775708   0.111315878098637   0.624819273935400   1.0000000
B2   B   0.888710976748139   0.611015065525070   0.624842272412356   1.0000000
B2   B   0.055518616223367   0.611037232446733   0.125065338160034   1.0000000
B2   B   0.722239874063815   0.111165309305840   0.624945517677143   1.0000000
B2   B   0.222342591322922   0.111315878098637   0.125180726064600   1.0000000
B2   B   0.389008409597181   0.610972093163356   0.125185079693835   1.0000000
B2   B   0.721963683566168   0.610972093163356   0.125185079693835   1.0000000
B2   B   0.555589031963200   0.111227618579900   0.125126117845728   1.0000000
B2   B   0.389008409597181   0.610972093163356   0.624814920306165   1.0000000
B2   B   0.888925435242018   0.111165309305840   0.125054482322858   1.0000000
B2   B   0.222247039631835   0.777739695445825   0.624959311909368   1.0000000
B2   B   0.055647185540744   0.277826937181479   0.624839445080313   1.0000000
B2   B   0.389068363360858   0.278136726721722   0.624870760151649   1.0000000
B2   B   0.555566069883643   0.777700438343418   0.624886540555969   1.0000000
B2   B   0.888766625465249   0.777723168158947   0.624907983664013   1.0000000
B2   B   0.722179751640735   0.277826937181479   0.624839445080313   1.0000000
B2   B   0.055492655813990   0.777739695445825   0.125040688090633   1.0000000
B2   B   0.388956542693691   0.777723168158947   0.125092016335987   1.0000000
B2   B   0.222403848563121   0.277966959767636   0.125288554966559   1.0000000
B2   B   0.722134368459773   0.777700438343418   0.125113459444030   1.0000000
B2   B   0.555563111204516   0.277966959767636   0.125288554966559   1.0000000
B2   B   0.888898230172941   0.277796460345889   0.125076108103630   1.0000000
B2   B   0.055595510927030   0.444402951596273   0.624886341160587   1.0000000
B2   B   0.222256128360687   0.944512256721373   0.624945185857345   1.0000000
B2   B   0.555591466233595   0.944466636003968   0.624943722278724   1.0000000
B2   B   0.389017943772171   0.444431418753740   0.624060926122986   1.0000000
B2   B   0.888875169770373   0.944466636003968   0.624943722278724   1.0000000
B2   B   0.055560871170754   0.944507711301490   0.125059208987482   1.0000000
B2   B   0.722019567504932   0.444395066884442   0.624731662762419   1.0000000
B2   B   0.388946840130736   0.944507711301490   0.125059208987482   1.0000000
B2   B   0.222375499379511   0.444395066884442   0.125268337237580   1.0000000
B2   B   0.222304088776924   0.611015065525070   0.125157727587644   1.0000000
B2   B   0.555413474981569   0.444431418753740   0.125939073877015   1.0000000
B2   B   0.722225503050492   0.944451006100985   0.125058089060578   1.0000000
B2   B   0.888807440669243   0.444402951596273   0.125113658839413   1.0000000
B2   B   0.055518616223367   0.611037232446733   0.624934661839965   1.0000000
B2   B   0.222342591322922   0.111315878098637   0.624819273935400   1.0000000
B2   B   0.721963683566168   0.610972093163356   0.624814920306165   1.0000000
B2   B   0.555589031963200   0.111227618579900   0.624873882154272   1.0000000
B2   B   0.888925435242018   0.111165309305840   0.624945517677143   1.0000000


