data_1
_audit_creation_method   'vasp2cif'
_cell_length_a    14.93631414619966
_cell_length_b    14.936314146199727
_cell_length_c    13.341276283792837
_cell_angle_alpha    90.0
_cell_angle_beta    90.0
_cell_angle_gamma    119.99999999999984

_symmetry_space_group_name_H-M    'P 1'
loop_
_atom_site_label
_atom_site_type_symbol
_atom_site_fract_x
_atom_site_fract_y
_atom_site_fract_z
_atom_site_occupancy
C2   C   0.555555555555557   0.444444444444443   0.375000000000000   1.0000000
N2   N   0.111114408689667   0.055548079422771   0.124933293734942   1.0000000
N2   N   0.611113817178843   0.555560967691006   0.125325885715091   1.0000000
N2   N   0.444437775893371   0.055556030451642   0.124989016487282   1.0000000
N2   N   0.944443969548356   0.555562224106633   0.124989016487282   1.0000000
N2   N   0.777767660286287   0.055550496809807   0.124936348424341   1.0000000
N2   N   0.111112381762264   0.722222857547782   0.625062107907063   1.0000000
N2   N   0.444437775893371   0.722215078775051   0.625010983512714   1.0000000
N2   N   0.277777572932723   0.222212807746633   0.625015601801744   1.0000000
N2   N   0.777787192253371   0.722222427067290   0.625015601801744   1.0000000
N2   N   0.611101901480581   0.222212807746633   0.625015601801744   1.0000000
N2   N   0.944449503190196   0.222232339713723   0.625063651575666   1.0000000
N2   N   0.277777142452203   0.722222857547782   0.124937892092934   1.0000000
N2   N   0.111124167727183   0.222228750530257   0.124967342347195   1.0000000
N2   N   0.444457272560948   0.222247878455236   0.125151678339527   1.0000000
N2   N   0.611101901480581   0.722222427067290   0.124984398198264   1.0000000
N2   N   0.944443969548356   0.722215078775051   0.124989016487282   1.0000000
N2   N   0.777771249469726   0.222228750530257   0.124967342347195   1.0000000
N2   N   0.111118424759373   0.888881575240638   0.625051726622173   1.0000000
N2   N   0.444429817147929   0.888881575240638   0.625051726622173   1.0000000
N2   N   0.277777572932723   0.388898098519417   0.625015601801744   1.0000000
N2   N   0.611113817178843   0.388886182821161   0.624674114284899   1.0000000
N2   N   0.777771249469726   0.888875832272817   0.625032657652808   1.0000000
N2   N   0.944451920577240   0.388899662600220   0.625066706265057   1.0000000
N2   N   0.111114408689667   0.388899662600220   0.124933293734942   1.0000000
N2   N   0.277777142452203   0.888887618237736   0.124937892092934   1.0000000
N2   N   0.611100337399772   0.888885591310335   0.124933293734942   1.0000000
N2   N   0.444439032308987   0.388886182821161   0.125325885715091   1.0000000
N2   N   0.944451920577240   0.888885591310335   0.124933293734942   1.0000000
N2   N   0.777787192253371   0.388898098519417   0.124984398198264   1.0000000
N2   N   0.277784921224944   0.555562224106633   0.625010983512714   1.0000000
N2   N   0.111114408689667   0.055548079422771   0.625066706265057   1.0000000
N2   N   0.611113817178843   0.555560967691006   0.624674114284899   1.0000000
N2   N   0.444437775893371   0.055556030451642   0.625010983512714   1.0000000
N2   N   0.944443969548356   0.555562224106633   0.625010983512714   1.0000000
N2   N   0.111118424759373   0.555570182852066   0.124948273377823   1.0000000
N2   N   0.777767660286287   0.055550496809807   0.625063651575666   1.0000000
N2   N   0.277784921224944   0.055556030451642   0.124989016487282   1.0000000
N2   N   0.444457272560948   0.555542727439058   0.125151678339527   1.0000000
N2   N   0.777752121544768   0.555542727439058   0.125151678339527   1.0000000
N2   N   0.611100337399772   0.055548079422771   0.124933293734942   1.0000000
N2   N   0.444457272560948   0.555542727439058   0.624848321660468   1.0000000
N2   N   0.944449503190196   0.055550496809807   0.124936348424341   1.0000000
N2   N   0.277777142452203   0.722222857547782   0.625062107907063   1.0000000
N2   N   0.111124167727183   0.222228750530257   0.625032657652808   1.0000000
N2   N   0.444457272560948   0.222247878455236   0.624848321660468   1.0000000
N2   N   0.611101901480581   0.722222427067290   0.625015601801744   1.0000000
N2   N   0.944443969548356   0.722215078775051   0.625010983512714   1.0000000
N2   N   0.777771249469726   0.222228750530257   0.625032657652808   1.0000000
N2   N   0.111112381762264   0.722222857547782   0.124937892092934   1.0000000
N2   N   0.444437775893371   0.722215078775051   0.124989016487282   1.0000000
N2   N   0.277777572932723   0.222212807746633   0.124984398198264   1.0000000
N2   N   0.777787192253371   0.722222427067290   0.124984398198264   1.0000000
N2   N   0.611101901480581   0.222212807746633   0.124984398198264   1.0000000
N2   N   0.944449503190196   0.222232339713723   0.124936348424341   1.0000000
N2   N   0.111114408689667   0.388899662600220   0.625066706265057   1.0000000
N2   N   0.277777142452203   0.888887618237736   0.625062107907063   1.0000000
N2   N   0.611100337399772   0.888885591310335   0.625066706265057   1.0000000
N2   N   0.444439032308987   0.388886182821161   0.624674114284899   1.0000000
N2   N   0.944451920577240   0.888885591310335   0.625066706265057   1.0000000
N2   N   0.111118424759373   0.888881575240638   0.124948273377823   1.0000000
N2   N   0.777787192253371   0.388898098519417   0.625015601801744   1.0000000
N2   N   0.444429817147929   0.888881575240638   0.124948273377823   1.0000000
N2   N   0.277777572932723   0.388898098519417   0.124984398198264   1.0000000
N2   N   0.277784921224944   0.555562224106633   0.124989016487282   1.0000000
N2   N   0.611113817178843   0.388886182821161   0.125325885715091   1.0000000
N2   N   0.777771249469726   0.888875832272817   0.124967342347195   1.0000000
N2   N   0.944451920577240   0.388899662600220   0.124933293734942   1.0000000
N2   N   0.111118424759373   0.555570182852066   0.625051726622173   1.0000000
N2   N   0.277784921224944   0.055556030451642   0.625010983512714   1.0000000
N2   N   0.777752121544768   0.555542727439058   0.624848321660468   1.0000000
N2   N   0.611100337399772   0.055548079422771   0.625066706265057   1.0000000
N2   N   0.944449503190196   0.055550496809807   0.625063651575666   1.0000000
N2   N   0.055243855174086   0.110933863612207   0.375000000000000   1.0000000
N2   N   0.556152950328469   0.613534028951616   0.375000000000000   1.0000000
N2   N   0.388932993162236   0.111199319657809   0.375000000000000   1.0000000
N2   N   0.888800680342185   0.611067006837775   0.375000000000000   1.0000000
N2   N   0.722356675104786   0.110933863612207   0.375000000000000   1.0000000
N2   N   0.055553456181942   0.777776982075605   0.875000000000000   1.0000000
N2   N   0.388890192560325   0.777776982075605   0.875000000000000   1.0000000
N2   N   0.222223420420845   0.277778376877090   0.875000000000000   1.0000000
N2   N   0.722221623122910   0.777776579579155   0.875000000000000   1.0000000
N2   N   0.555557052894780   0.277776022771969   0.875000000000000   1.0000000
N2   N   0.888888420965024   0.277775681564498   0.875000000000000   1.0000000
N2   N   0.222222222222221   0.777777777777779   0.375000000000000   1.0000000
N2   N   0.055243855174086   0.277643324895212   0.375000000000000   1.0000000
N2   N   0.386465971048375   0.275952254710185   0.375000000000000   1.0000000
N2   N   0.555595322699398   0.778791353741874   0.375000000000000   1.0000000
N2   N   0.889862697709137   0.778791353741874   0.375000000000000   1.0000000
N2   N   0.722676101264385   0.277323898735613   0.375000000000000   1.0000000
N2   N   0.055555792139784   0.944444207860214   0.875000000000000   1.0000000
N2   N   0.388890192560325   0.944446543818054   0.875000000000000   1.0000000
N2   N   0.222215261568814   0.444445285511483   0.875000000000000   1.0000000
N2   N   0.555555555555557   0.444444444444443   0.875000000000000   1.0000000
N2   N   0.722224318435497   0.944446072733860   0.875000000000000   1.0000000
N2   N   0.888896690609327   0.444445285511483   0.875000000000000   1.0000000
N2   N   0.055579854874791   0.444493043082915   0.375000000000000   1.0000000
N2   N   0.222222031312609   0.944394274033405   0.375000000000000   1.0000000
N2   N   0.555506956917080   0.944420145125205   0.375000000000000   1.0000000
N2   N   0.386465971048375   0.443847049671523   0.375000000000000   1.0000000
N2   N   0.889066136387784   0.944756144825911   0.375000000000000   1.0000000
N2   N   0.724047745289811   0.443847049671523   0.375000000000000   1.0000000
N2   N   0.222223017924391   0.611109807439672   0.875000000000000   1.0000000
N2   N   0.055553927266130   0.111111579034969   0.875000000000000   1.0000000
N2   N   0.555557052894780   0.611114363456148   0.875000000000000   1.0000000
N2   N   0.388892757828346   0.111118848990025   0.875000000000000   1.0000000
N2   N   0.888881151009966   0.611107242171662   0.875000000000000   1.0000000
N2   N   0.055605725966592   0.611161090612529   0.375000000000000   1.0000000
N2   N   0.722224318435497   0.111111579034969   0.875000000000000   1.0000000
N2   N   0.221208646258128   0.110137302290855   0.375000000000000   1.0000000
N2   N   0.388932993162236   0.611067006837775   0.375000000000000   1.0000000
N2   N   0.724047745289811   0.613534028951616   0.375000000000000   1.0000000
N2   N   0.555595322699398   0.110137302290855   0.375000000000000   1.0000000
N2   N   0.388892757828346   0.611107242171662   0.875000000000000   1.0000000
N2   N   0.888888888888886   0.111111111111114   0.375000000000000   1.0000000
N2   N   0.222222222222221   0.777777777777779   0.875000000000000   1.0000000
N2   N   0.055553927266130   0.277775681564498   0.875000000000000   1.0000000
N2   N   0.388885636543868   0.277776022771969   0.875000000000000   1.0000000
N2   N   0.555554714488514   0.777784738431183   0.875000000000000   1.0000000
N2   N   0.888896690609327   0.777784738431183   0.875000000000000   1.0000000
N2   N   0.722221623122910   0.277778376877090   0.875000000000000   1.0000000
N2   N   0.055605725966592   0.777777968687393   0.375000000000000   1.0000000
N2   N   0.388838909387458   0.777777968687393   0.375000000000000   1.0000000
N2   N   0.221314464137907   0.277323898735613   0.375000000000000   1.0000000
N2   N   0.722676101264385   0.778685535862109   0.375000000000000   1.0000000
N2   N   0.556152950328469   0.275952254710185   0.375000000000000   1.0000000
N2   N   0.889066136387784   0.277643324895212   0.375000000000000   1.0000000
N2   N   0.055555792139784   0.444444917612894   0.875000000000000   1.0000000
N2   N   0.222223017924391   0.944446543818054   0.875000000000000   1.0000000
N2   N   0.555555082387102   0.944444207860214   0.875000000000000   1.0000000
N2   N   0.388885636543868   0.444442947105233   0.875000000000000   1.0000000
N2   N   0.888888420965024   0.944446072733860   0.875000000000000   1.0000000
N2   N   0.055579854874791   0.944420145125205   0.375000000000000   1.0000000
N2   N   0.722223977228034   0.444442947105233   0.875000000000000   1.0000000
N2   N   0.388838909387458   0.944394274033405   0.375000000000000   1.0000000
N2   N   0.221208646258128   0.444404677300615   0.375000000000000   1.0000000
N2   N   0.222222031312609   0.611161090612529   0.375000000000000   1.0000000
N2   N   0.722356675104786   0.944756144825911   0.375000000000000   1.0000000
N2   N   0.889862697709137   0.444404677300615   0.375000000000000   1.0000000
N2   N   0.055553456181942   0.611109807439672   0.875000000000000   1.0000000
N2   N   0.222215261568814   0.111103309390662   0.875000000000000   1.0000000
N2   N   0.722223977228034   0.611114363456148   0.875000000000000   1.0000000
N2   N   0.555554714488514   0.111103309390662   0.875000000000000   1.0000000
N2   N   0.888888888888886   0.111111111111114   0.875000000000000   1.0000000
B2   B   0.110364628305729   0.055058521064389   0.375000000000000   1.0000000
B2   B   0.614860279195659   0.563053891724654   0.375000000000000   1.0000000
B2   B   0.444559929996348   0.055075301075211   0.375000000000000   1.0000000
B2   B   0.944924698924793   0.555440070003651   0.375000000000000   1.0000000
B2   B   0.777991398914135   0.055662366123733   0.375000000000000   1.0000000
B2   B   0.111310103702119   0.722321718517725   0.875000000000000   1.0000000
B2   B   0.444351302267770   0.722048725996268   0.875000000000000   1.0000000
B2   B   0.277649649798375   0.222294886536755   0.875000000000000   1.0000000
B2   B   0.777705113463245   0.722350350201632   0.875000000000000   1.0000000
B2   B   0.611311903405035   0.222294886536755   0.875000000000000   1.0000000
B2   B   0.944343338935461   0.222020011204279   0.875000000000000   1.0000000
B2   B   0.277731240345307   0.722268759654689   0.375000000000000   1.0000000
B2   B   0.110010065019546   0.221671699176437   0.375000000000000   1.0000000
B2   B   0.443964220554069   0.221261774441472   0.375000000000000   1.0000000
B2   B   0.611780649720207   0.724837126777859   0.375000000000000   1.0000000
B2   B   0.944924698924793   0.722817962254474   0.375000000000000   1.0000000
B2   B   0.778328300823552   0.221671699176437   0.375000000000000   1.0000000
B2   B   0.111012761876023   0.888987238123979   0.875000000000000   1.0000000
B2   B   0.444641142914627   0.888987238123979   0.875000000000000   1.0000000
B2   B   0.277649649798375   0.388688096594952   0.875000000000000   1.0000000
B2   B   0.611044485908043   0.388955514091958   0.875000000000000   1.0000000
B2   B   0.777694359290294   0.888722051913911   0.875000000000000   1.0000000
B2   B   0.944647929429420   0.388981246192476   0.875000000000000   1.0000000
B2   B   0.110364628305729   0.388639440574669   0.375000000000000   1.0000000
B2   B   0.277731240345307   0.888795814023944   0.375000000000000   1.0000000
B2   B   0.611360559425323   0.889635371694268   0.375000000000000   1.0000000
B2   B   0.436946108275353   0.385139720804337   0.375000000000000   1.0000000
B2   B   0.944941478935612   0.889635371694268   0.375000000000000   1.0000000
B2   B   0.779723143724326   0.388219350279803   0.375000000000000   1.0000000
B2   B   0.277951274003727   0.555648697732236   0.875000000000000   1.0000000
B2   B   0.110999983429726   0.055352070570576   0.875000000000000   1.0000000
B2   B   0.611044485908043   0.555422305149413   0.875000000000000   1.0000000
B2   B   0.444351302267770   0.055635909604841   0.875000000000000   1.0000000
B2   B   0.944364090395176   0.555648697732236   0.875000000000000   1.0000000
B2   B   0.111089676224508   0.555512685782340   0.375000000000000   1.0000000
B2   B   0.777979988795719   0.055656661064530   0.875000000000000   1.0000000
B2   B   0.277182037745525   0.055075301075211   0.375000000000000   1.0000000
B2   B   0.443964220554069   0.556035779445930   0.375000000000000   1.0000000
B2   B   0.778738225558527   0.556035779445930   0.375000000000000   1.0000000
B2   B   0.611360559425323   0.055058521064389   0.375000000000000   1.0000000
B2   B   0.444337274473759   0.555662725526248   0.875000000000000   1.0000000
B2   B   0.944337633876277   0.055662366123733   0.375000000000000   1.0000000
B2   B   0.277678281482273   0.722321718517725   0.875000000000000   1.0000000
B2   B   0.111277948086092   0.222305640709711   0.875000000000000   1.0000000
B2   B   0.444337274473759   0.222007882280842   0.875000000000000   1.0000000
B2   B   0.611311903405035   0.722350350201632   0.875000000000000   1.0000000
B2   B   0.944364090395176   0.722048725996268   0.875000000000000   1.0000000
B2   B   0.777694359290294   0.222305640709711   0.875000000000000   1.0000000
B2   B   0.111204185976049   0.722268759654689   0.375000000000000   1.0000000
B2   B   0.444559929996348   0.722817962254474   0.375000000000000   1.0000000
B2   B   0.275162873222145   0.220276856275666   0.375000000000000   1.0000000
B2   B   0.779723143724326   0.724837126777859   0.375000000000000   1.0000000
B2   B   0.611780649720207   0.220276856275666   0.375000000000000   1.0000000
B2   B   0.944337633876277   0.222008601085871   0.375000000000000   1.0000000
B2   B   0.110999983429726   0.388981246192476   0.875000000000000   1.0000000
B2   B   0.277678281482273   0.888689896297875   0.875000000000000   1.0000000
B2   B   0.611018753807516   0.889000016570269   0.875000000000000   1.0000000
B2   B   0.444577694850586   0.388955514091958   0.875000000000000   1.0000000
B2   B   0.944647929429420   0.889000016570269   0.875000000000000   1.0000000
B2   B   0.111089676224508   0.888910323775487   0.375000000000000   1.0000000
B2   B   0.777705113463245   0.388688096594952   0.875000000000000   1.0000000
B2   B   0.444487314217659   0.888910323775487   0.375000000000000   1.0000000
B2   B   0.275162873222145   0.388219350279803   0.375000000000000   1.0000000
B2   B   0.277182037745525   0.555440070003651   0.375000000000000   1.0000000
B2   B   0.614860279195659   0.385139720804337   0.375000000000000   1.0000000
B2   B   0.778328300823552   0.889989934980451   0.375000000000000   1.0000000
B2   B   0.944941478935612   0.388639440574669   0.375000000000000   1.0000000
B2   B   0.111012761876023   0.555358857085375   0.875000000000000   1.0000000
B2   B   0.277951274003727   0.055635909604841   0.875000000000000   1.0000000
B2   B   0.777992117719146   0.555662725526248   0.875000000000000   1.0000000
B2   B   0.611018753807516   0.055352070570576   0.875000000000000   1.0000000
B2   B   0.944343338935461   0.055656661064530   0.875000000000000   1.0000000
B2   B   0.055526928886737   0.111078876513528   0.125086819995236   1.0000000
B2   B   0.555544445502183   0.611259146519374   0.125018119921580   1.0000000
B2   B   0.388808419045371   0.110950171424091   0.125001381461232   1.0000000
B2   B   0.889049828575916   0.611191580954632   0.125001381461232   1.0000000
B2   B   0.722218614293441   0.111078876513528   0.125086819995236   1.0000000
B2   B   0.055624728421000   0.777804079557911   0.624911861759442   1.0000000
B2   B   0.388846017803583   0.777804079557911   0.624911861759442   1.0000000
B2   B   0.222126578780426   0.277729956056883   0.625034215593372   1.0000000
B2   B   0.722270043943114   0.777873421219570   0.625034215593372   1.0000000
B2   B   0.555544445502183   0.277618632316144   0.624981880078420   1.0000000
B2   B   0.888921123486474   0.277781385706538   0.624913180004751   1.0000000
B2   B   0.222222222222221   0.777777777777779   0.125018119357347   1.0000000
B2   B   0.055526928886737   0.277781385706538   0.125086819995236   1.0000000
B2   B   0.388740853480622   0.277618632316144   0.125018119921580   1.0000000
B2   B   0.555539399809311   0.777857383656450   0.125054367527650   1.0000000
B2   B   0.888984650513788   0.777857383656450   0.125054367527650   1.0000000
B2   B   0.722270043943114   0.277729956056883   0.124965784406634   1.0000000
B2   B   0.055566497692067   0.944433502307940   0.624974394361940   1.0000000
B2   B   0.388846017803583   0.944375271579003   0.624911861759442   1.0000000
B2   B   0.222142616343560   0.444460600190686   0.624945632472357   1.0000000
B2   B   0.555555555555557   0.444444444444443   0.625304718976260   1.0000000
B2   B   0.722218614293441   0.944473071113262   0.624913180004751   1.0000000
B2   B   0.888984650513788   0.444460600190686   0.624945632472357   1.0000000
B2   B   0.055566497692067   0.444466328717459   0.125025605638059   1.0000000
B2   B   0.222195920442080   0.944375271579003   0.125088138240566   1.0000000
B2   B   0.555533671282524   0.944433502307940   0.125025605638059   1.0000000
B2   B   0.388740853480622   0.444455554497812   0.125018119921580   1.0000000
B2   B   0.888921123486474   0.944473071113262   0.125086819995236   1.0000000
B2   B   0.722381367683859   0.444455554497812   0.125018119921580   1.0000000
B2   B   0.222195920442080   0.611153982196410   0.624911861759442   1.0000000
B2   B   0.055526928886737   0.111078876513528   0.624913180004751   1.0000000
B2   B   0.555544445502183   0.611259146519374   0.624981880078420   1.0000000
B2   B   0.388808419045371   0.110950171424091   0.624998618538781   1.0000000
B2   B   0.889049828575916   0.611191580954632   0.624998618538781   1.0000000
B2   B   0.055624728421000   0.611153982196410   0.125088138240566   1.0000000
B2   B   0.722218614293441   0.111078876513528   0.624913180004751   1.0000000
B2   B   0.222142616343560   0.111015349486213   0.125054367527650   1.0000000
B2   B   0.388808419045371   0.611191580954632   0.125001381461232   1.0000000
B2   B   0.722381367683859   0.611259146519374   0.125018119921580   1.0000000
B2   B   0.555539399809311   0.111015349486213   0.125054367527650   1.0000000
B2   B   0.388808419045371   0.611191580954632   0.624998618538781   1.0000000
B2   B   0.888888888888886   0.111111111111114   0.125027381642737   1.0000000
B2   B   0.222222222222221   0.777777777777779   0.624981880642647   1.0000000
B2   B   0.055526928886737   0.277781385706538   0.624913180004751   1.0000000
B2   B   0.388740853480622   0.277618632316144   0.624981880078420   1.0000000
B2   B   0.555539399809311   0.777857383656450   0.624945632472357   1.0000000
B2   B   0.888984650513788   0.777857383656450   0.624945632472357   1.0000000
B2   B   0.722270043943114   0.277729956056883   0.625034215593372   1.0000000
B2   B   0.055624728421000   0.777804079557911   0.125088138240566   1.0000000
B2   B   0.388846017803583   0.777804079557911   0.125088138240566   1.0000000
B2   B   0.222126578780426   0.277729956056883   0.124965784406634   1.0000000
B2   B   0.722270043943114   0.777873421219570   0.124965784406634   1.0000000
B2   B   0.555544445502183   0.277618632316144   0.125018119921580   1.0000000
B2   B   0.888921123486474   0.277781385706538   0.125086819995236   1.0000000
B2   B   0.055566497692067   0.444466328717459   0.624974394361940   1.0000000
B2   B   0.222195920442080   0.944375271579003   0.624911861759442   1.0000000
B2   B   0.555533671282524   0.944433502307940   0.624974394361940   1.0000000
B2   B   0.388740853480622   0.444455554497812   0.624981880078420   1.0000000
B2   B   0.888921123486474   0.944473071113262   0.624913180004751   1.0000000
B2   B   0.055566497692067   0.944433502307940   0.125025605638059   1.0000000
B2   B   0.722381367683859   0.444455554497812   0.624981880078420   1.0000000
B2   B   0.388846017803583   0.944375271579003   0.125088138240566   1.0000000
B2   B   0.222142616343560   0.444460600190686   0.125054367527650   1.0000000
B2   B   0.222195920442080   0.611153982196410   0.125088138240566   1.0000000
B2   B   0.555555555555557   0.444444444444443   0.124695281023733   1.0000000
B2   B   0.722218614293441   0.944473071113262   0.125086819995236   1.0000000
B2   B   0.888984650513788   0.444460600190686   0.125054367527650   1.0000000
B2   B   0.055624728421000   0.611153982196410   0.624911861759442   1.0000000
B2   B   0.222142616343560   0.111015349486213   0.624945632472357   1.0000000
B2   B   0.722381367683859   0.611259146519374   0.624981880078420   1.0000000
B2   B   0.555539399809311   0.111015349486213   0.624945632472357   1.0000000
B2   B   0.888888888888886   0.111111111111114   0.624972618357268   1.0000000


