data_1
_audit_creation_method   'vasp2cif'
_cell_length_a    14.93631414619966
_cell_length_b    14.936314146199727
_cell_length_c    13.341276283792837
_cell_angle_alpha    90.0
_cell_angle_beta    90.0
_cell_angle_gamma    119.99999999999984

_symmetry_space_group_name_H-M    'P 1'
loop_
_atom_site_label
_atom_site_type_symbol
_atom_site_fract_x
_atom_site_fract_y
_atom_site_fract_z
_atom_site_occupancy
C2   C   0.429409653980609   0.376650864239140   0.375000000000000   1.0000000
C2   C   0.543903769918274   0.407666585784025   0.375000000000000   1.0000000
N2   N   0.111231575351263   0.055643306605359   0.125288367491919   1.0000000
N2   N   0.611281159837543   0.555617378634913   0.126052558662566   1.0000000
N2   N   0.444571415342109   0.055710597998056   0.126271920991853   1.0000000
N2   N   0.944635957680990   0.555667898070655   0.125086899028776   1.0000000
N2   N   0.777852859054590   0.055620427090742   0.125421386357755   1.0000000
N2   N   0.111269256760300   0.722326118966598   0.624693877424185   1.0000000
N2   N   0.444522152900289   0.722256574922710   0.624459173078499   1.0000000
N2   N   0.277903593763341   0.222318685237452   0.623726966678076   1.0000000
N2   N   0.777925714167646   0.722296762722608   0.624659695471680   1.0000000
N2   N   0.611272309674605   0.222393806992595   0.623259716626269   1.0000000
N2   N   0.944576284573801   0.222302294478546   0.624686449229886   1.0000000
N2   N   0.277889371561494   0.722296488447074   0.125381444014280   1.0000000
N2   N   0.111241723617153   0.222300957297270   0.125381423708520   1.0000000
N2   N   0.444640029715728   0.222440719629096   0.128115255625958   1.0000000
N2   N   0.611198591032005   0.722240083596298   0.125603697500354   1.0000000
N2   N   0.944623303726448   0.722339979661841   0.125192399709838   1.0000000
N2   N   0.777916280980641   0.222328460106778   0.125527438043565   1.0000000
N2   N   0.111267269694822   0.889003609824149   0.624655096639645   1.0000000
N2   N   0.444521887880511   0.888970173002129   0.624493398366076   1.0000000
N2   N   0.277947761330695   0.388973800546908   0.623678014365073   1.0000000
N2   N   0.611362829867935   0.389069069045016   0.624745471613059   1.0000000
N2   N   0.777856328967764   0.888932670383121   0.624602853472841   1.0000000
N2   N   0.944620585538385   0.388987222705387   0.624740763528256   1.0000000
N2   N   0.111261265444450   0.388975621786388   0.125418266628697   1.0000000
N2   N   0.277910110133009   0.889001984248362   0.125520309140032   1.0000000
N2   N   0.611163093233513   0.888930553980201   0.125486172400132   1.0000000
N2   N   0.444648018220317   0.388984115786236   0.128070156157921   1.0000000
N2   N   0.944577018468785   0.888979873778830   0.125276695936054   1.0000000
N2   N   0.777993673247670   0.388997583976754   0.125037755371483   1.0000000
N2   N   0.277907386402278   0.555617211844980   0.624363645638064   1.0000000
N2   N   0.111231575351263   0.055643306605359   0.624711632508090   1.0000000
N2   N   0.611281159837543   0.555617378634913   0.623947441337436   1.0000000
N2   N   0.444571415342109   0.055710597998056   0.623728079008116   1.0000000
N2   N   0.944635957680990   0.555667898070655   0.624913100971238   1.0000000
N2   N   0.111265075709846   0.555648517346960   0.125334754524000   1.0000000
N2   N   0.777852859054590   0.055620427090742   0.624578613642255   1.0000000
N2   N   0.277943089163282   0.055700661572368   0.126064050441765   1.0000000
N2   N   0.444571301522391   0.555572653601095   0.126398975494723   1.0000000
N2   N   0.777993050102129   0.555701238437726   0.124926338762497   1.0000000
N2   N   0.611188497033147   0.055659879168149   0.125722775606947   1.0000000
N2   N   0.444571301522391   0.555572653601095   0.623601024505247   1.0000000
N2   N   0.944542422733046   0.055619603697469   0.125263242791360   1.0000000
N2   N   0.277889371561494   0.722296488447074   0.624618555985723   1.0000000
N2   N   0.111241723617153   0.222300957297270   0.624618576291466   1.0000000
N2   N   0.444640029715728   0.222440719629096   0.621884744374042   1.0000000
N2   N   0.611198591032005   0.722240083596298   0.624396302499638   1.0000000
N2   N   0.944623303726448   0.722339979661841   0.624807600290158   1.0000000
N2   N   0.777916280980641   0.222328460106778   0.624472561956455   1.0000000
N2   N   0.111269256760300   0.722326118966598   0.125306122575817   1.0000000
N2   N   0.444522152900289   0.722256574922709   0.125540826921480   1.0000000
N2   N   0.277903593763341   0.222318685237452   0.126273033321931   1.0000000
N2   N   0.777925714167646   0.722296762722608   0.125340304528307   1.0000000
N2   N   0.611272309674605   0.222393806992595   0.126740283373754   1.0000000
N2   N   0.944576284573801   0.222302294478546   0.125313550770118   1.0000000
N2   N   0.111261265444450   0.388975621786388   0.624581733371304   1.0000000
N2   N   0.277910110133009   0.889001984248362   0.624479690859982   1.0000000
N2   N   0.611163093233513   0.888930553980201   0.624513827599881   1.0000000
N2   N   0.444648018220317   0.388984115786236   0.621929843842092   1.0000000
N2   N   0.944577018468785   0.888979873778830   0.624723304063958   1.0000000
N2   N   0.111267269694822   0.889003609824149   0.125344903360330   1.0000000
N2   N   0.777993673247670   0.388997583976754   0.624962244628497   1.0000000
N2   N   0.444521887880511   0.888970173002129   0.125506601633916   1.0000000
N2   N   0.277947761330695   0.388973800546908   0.126321985634925   1.0000000
N2   N   0.277907386402278   0.555617211844980   0.125636354361929   1.0000000
N2   N   0.611362829867935   0.389069069045016   0.125254528386953   1.0000000
N2   N   0.777856328967764   0.888932670383121   0.125397146527176   1.0000000
N2   N   0.944620585538385   0.388987222705387   0.125259236471731   1.0000000
N2   N   0.111265075709846   0.555648517346960   0.624665245476012   1.0000000
N2   N   0.277943089163282   0.055700661572368   0.623935949558232   1.0000000
N2   N   0.777993050102129   0.555701238437726   0.625073661237520   1.0000000
N2   N   0.611188497033147   0.055659879168149   0.624277224393066   1.0000000
N2   N   0.944542422733046   0.055619603697469   0.624736757208639   1.0000000
N2   N   0.051045197554509   0.108636398936976   0.375000000000000   1.0000000
N2   N   0.556255831493406   0.601118411839840   0.375000000000000   1.0000000
N2   N   0.390917545743010   0.119403939160029   0.375000000000000   1.0000000
N2   N   0.894167417217027   0.613784222129390   0.375000000000000   1.0000000
N2   N   0.721199414464802   0.111973277921658   0.375000000000000   1.0000000
N2   N   0.055655422044587   0.777819789808953   0.875000000000000   1.0000000
N2   N   0.389004518830532   0.777829771155011   0.875000000000000   1.0000000
N2   N   0.222318624645483   0.277816768320183   0.875000000000000   1.0000000
N2   N   0.722324710992106   0.777822050757220   0.875000000000000   1.0000000
N2   N   0.555648635638853   0.277806515020120   0.875000000000000   1.0000000
N2   N   0.888985878006895   0.277813264308970   0.875000000000000   1.0000000
N2   N   0.225699263982397   0.780395616576482   0.375000000000000   1.0000000
N2   N   0.052390793234077   0.276975830988610   0.375000000000000   1.0000000
N2   N   0.374072256426139   0.275163235245072   0.375000000000000   1.0000000
N2   N   0.555977435942728   0.774443597245965   0.375000000000000   1.0000000
N2   N   0.888166061502006   0.776085626801446   0.375000000000000   1.0000000
N2   N   0.724287106134046   0.281110205131033   0.375000000000000   1.0000000
N2   N   0.055650840981424   0.944486042418290   0.875000000000000   1.0000000
N2   N   0.389003788598934   0.944496971282999   0.875000000000000   1.0000000
N2   N   0.222323341264157   0.444483287961542   0.875000000000000   1.0000000
N2   N   0.555644974447277   0.444482459954865   0.875000000000000   1.0000000
N2   N   0.722328197446543   0.944486579320960   0.875000000000000   1.0000000
N2   N   0.888987678273420   0.444480952765980   0.875000000000000   1.0000000
N2   N   0.057820018106259   0.445396437949556   0.375000000000000   1.0000000
N2   N   0.223993309238749   0.947394549820528   0.375000000000000   1.0000000
N2   N   0.556021986437288   0.946133593233143   0.375000000000000   1.0000000
N2   N   0.387228400138788   0.436279736387227   0.375000000000000   1.0000000
N2   N   0.886098819970247   0.942024710849760   0.375000000000000   1.0000000
N2   N   0.739962801683589   0.452943508114859   0.375000000000000   1.0000000
N2   N   0.222329719761135   0.611154465164572   0.875000000000000   1.0000000
N2   N   0.055646966245356   0.111146212942326   0.875000000000000   1.0000000
N2   N   0.555655888991157   0.611153221528981   0.875000000000000   1.0000000
N2   N   0.388996177889723   0.111157548049108   0.875000000000000   1.0000000
N2   N   0.888986471044311   0.611148314126084   0.875000000000000   1.0000000
N2   N   0.059991501311653   0.613387323974507   0.375000000000000   1.0000000
N2   N   0.722323885578611   0.111146122456304   0.875000000000000   1.0000000
N2   N   0.216953060403165   0.108697473279107   0.375000000000000   1.0000000
N2   N   0.391123139326494   0.607555796631853   0.375000000000000   1.0000000
N2   N   0.722068963161452   0.607451641691537   0.375000000000000   1.0000000
N2   N   0.555985649025949   0.118715422759679   0.375000000000000   1.0000000
N2   N   0.389000376592411   0.611154220364622   0.875000000000000   1.0000000
N2   N   0.886130063207099   0.109866762867609   0.375000000000000   1.0000000
N2   N   0.222333201167398   0.777827995987605   0.875000000000000   1.0000000
N2   N   0.055649462309935   0.277813529898032   0.875000000000000   1.0000000
N2   N   0.388991396968622   0.277819737489692   0.875000000000000   1.0000000
N2   N   0.555665609265184   0.777825435306062   0.875000000000000   1.0000000
N2   N   0.888987060503306   0.777820289081401   0.875000000000000   1.0000000
N2   N   0.722317689057845   0.277807318192080   0.875000000000000   1.0000000
N2   N   0.058362015700145   0.779668221562739   0.375000000000000   1.0000000
N2   N   0.391349526562942   0.778512703922584   0.375000000000000   1.0000000
N2   N   0.214485288073536   0.275040113882342   0.375000000000000   1.0000000
N2   N   0.720858155553484   0.774268477045495   0.375000000000000   1.0000000
N2   N   0.547777428041847   0.319927500732808   0.375000000000000   1.0000000
N2   N   0.888572388028536   0.278343968044609   0.375000000000000   1.0000000
N2   N   0.055652638018156   0.444484049190557   0.875000000000000   1.0000000
N2   N   0.222326603976521   0.944493164138944   0.875000000000000   1.0000000
N2   N   0.555666457215621   0.944490580423160   0.875000000000000   1.0000000
N2   N   0.388993715090594   0.444484385400395   0.875000000000000   1.0000000
N2   N   0.888988781294745   0.944484490200755   0.875000000000000   1.0000000
N2   N   0.053297392597778   0.942718016527365   0.375000000000000   1.0000000
N2   N   0.722318575845896   0.444479648631393   0.875000000000000   1.0000000
N2   N   0.391293166424058   0.949175682562873   0.375000000000000   1.0000000
N2   N   0.222418297897657   0.443426733063533   0.375000000000000   1.0000000
N2   N   0.225590496412185   0.611868910125012   0.375000000000000   1.0000000
N2   N   0.720603879151958   0.942910238227395   0.375000000000000   1.0000000
N2   N   0.894326109345963   0.446924398449344   0.375000000000000   1.0000000
N2   N   0.055657441167996   0.611151305347894   0.875000000000000   1.0000000
N2   N   0.222318041988395   0.111151873387482   0.875000000000000   1.0000000
N2   N   0.722315576644613   0.611151272877344   0.875000000000000   1.0000000
N2   N   0.555660374344451   0.111148333007869   0.875000000000000   1.0000000
N2   N   0.888987604916349   0.111146108123566   0.875000000000000   1.0000000
B2   B   0.105744936606090   0.052458545668481   0.375000000000000   1.0000000
B2   B   0.613629194661537   0.545461305832714   0.375000000000000   1.0000000
B2   B   0.444503808362622   0.060082619097990   0.375000000000000   1.0000000
B2   B   0.949499684948086   0.558152110082628   0.375000000000000   1.0000000
B2   B   0.775682637975145   0.054220685847925   0.375000000000000   1.0000000
B2   B   0.111199949188795   0.722257091566768   0.875000000000000   1.0000000
B2   B   0.444565640328056   0.722305762588960   0.875000000000000   1.0000000
B2   B   0.277802799757916   0.222213850017737   0.875000000000000   1.0000000
B2   B   0.777919468291786   0.722310614789526   0.875000000000000   1.0000000
B2   B   0.611260325228792   0.222238134867479   0.875000000000000   1.0000000
B2   B   0.944520756786515   0.222239164659845   0.875000000000000   1.0000000
B2   B   0.280376281971654   0.723516555214867   0.375000000000000   1.0000000
B2   B   0.103707287410503   0.218937179491427   0.375000000000000   1.0000000
B2   B   0.437838437808809   0.228560277426145   0.375000000000000   1.0000000
B2   B   0.610763958308893   0.716851706892176   0.375000000000000   1.0000000
B2   B   0.947507080144776   0.724205064808321   0.375000000000000   1.0000000
B2   B   0.778832109969722   0.222502584010934   0.375000000000000   1.0000000
B2   B   0.111172020207827   0.888898062534805   0.875000000000000   1.0000000
B2   B   0.444559182078376   0.888919302839451   0.875000000000000   1.0000000
B2   B   0.277820391301959   0.388928688684227   0.875000000000000   1.0000000
B2   B   0.611284956612234   0.388959890929318   0.875000000000000   1.0000000
B2   B   0.777900515211776   0.888950093366935   0.875000000000000   1.0000000
B2   B   0.944549207319436   0.388932352772326   0.875000000000000   1.0000000
B2   B   0.110530619269006   0.388125399204631   0.375000000000000   1.0000000
B2   B   0.279637535462060   0.891490827717593   0.375000000000000   1.0000000
B2   B   0.610302564568466   0.887354035386544   0.375000000000000   1.0000000
B2   B   0.942200689818808   0.886942625348469   0.375000000000000   1.0000000
B2   B   0.784421773662563   0.391506823193292   0.375000000000000   1.0000000
B2   B   0.277857709757147   0.555621643205601   0.875000000000000   1.0000000
B2   B   0.111138406902380   0.055546017463038   0.875000000000000   1.0000000
B2   B   0.611273788415821   0.555675808893142   0.875000000000000   1.0000000
B2   B   0.444546026316826   0.055547672984115   0.875000000000000   1.0000000
B2   B   0.944567209768045   0.555613192718375   0.875000000000000   1.0000000
B2   B   0.114304377023840   0.556838427088574   0.375000000000000   1.0000000
B2   B   0.777895098866273   0.055580863025704   0.875000000000000   1.0000000
B2   B   0.276548775984474   0.057635556389842   0.375000000000000   1.0000000
B2   B   0.446474937441492   0.552154901159096   0.375000000000000   1.0000000
B2   B   0.783782009536241   0.559338299187270   0.375000000000000   1.0000000
B2   B   0.611141561928902   0.057581863555205   0.375000000000000   1.0000000
B2   B   0.444560762812767   0.555658604638755   0.875000000000000   1.0000000
B2   B   0.940303773046429   0.052943057844566   0.375000000000000   1.0000000
B2   B   0.277874309449414   0.722271497663552   0.875000000000000   1.0000000
B2   B   0.111132431074839   0.222221039389055   0.875000000000000   1.0000000
B2   B   0.444539724505291   0.222225441508109   0.875000000000000   1.0000000
B2   B   0.611257071718770   0.722330410371483   0.875000000000000   1.0000000
B2   B   0.944554583540668   0.722273130036026   0.875000000000000   1.0000000
B2   B   0.777912052302448   0.222247380178776   0.875000000000000   1.0000000
B2   B   0.114472238338800   0.724456810576694   0.375000000000000   1.0000000
B2   B   0.445624657908884   0.720717606624309   0.375000000000000   1.0000000
B2   B   0.264031800020966   0.216683080878257   0.375000000000000   1.0000000
B2   B   0.777378134106121   0.720182883039255   0.375000000000000   1.0000000
B2   B   0.618868032722300   0.226458840552641   0.375000000000000   1.0000000
B2   B   0.941805627267427   0.220985995836364   0.375000000000000   1.0000000
B2   B   0.111164453086597   0.388922345089798   0.875000000000000   1.0000000
B2   B   0.277857188541635   0.888898488353312   0.875000000000000   1.0000000
B2   B   0.611247147702133   0.888947176374431   0.875000000000000   1.0000000
B2   B   0.444542828072871   0.388946987811372   0.875000000000000   1.0000000
B2   B   0.944528555480131   0.888922569207694   0.875000000000000   1.0000000
B2   B   0.111926711047468   0.890203840513958   0.375000000000000   1.0000000
B2   B   0.777931771177391   0.388951175266994   0.875000000000000   1.0000000
B2   B   0.445410958324503   0.890480439538333   0.375000000000000   1.0000000
B2   B   0.272015522089520   0.384331032059146   0.375000000000000   1.0000000
B2   B   0.279363179102363   0.554889544522321   0.375000000000000   1.0000000
B2   B   0.775536061228144   0.886392061081401   0.375000000000000   1.0000000
B2   B   0.947328360881762   0.389828483209049   0.375000000000000   1.0000000
B2   B   0.111197479985672   0.555605049656690   0.875000000000000   1.0000000
B2   B   0.277822620537396   0.055536978064271   0.875000000000000   1.0000000
B2   B   0.777933683241197   0.555633971587863   0.875000000000000   1.0000000
B2   B   0.611246505364453   0.055567502317469   0.875000000000000   1.0000000
B2   B   0.944511752139440   0.055568853018221   0.875000000000000   1.0000000
B2   B   0.055547251779809   0.111089570186810   0.124783589327898   1.0000000
B2   B   0.555800877034797   0.611341498962159   0.125268258147664   1.0000000
B2   B   0.388879451553241   0.111002527560262   0.125920631593632   1.0000000
B2   B   0.889212445660939   0.611299534708395   0.124620789706437   1.0000000
B2   B   0.722403139629442   0.111173619553750   0.124952229006275   1.0000000
B2   B   0.055712971347586   0.777844583724484   0.625105585999465   1.0000000
B2   B   0.388903020061232   0.777813649785782   0.625009505512003   1.0000000
B2   B   0.222120820032526   0.277776846451374   0.624914022983769   1.0000000
B2   B   0.722424612783538   0.777912936373975   0.625067936214291   1.0000000
B2   B   0.555967653902091   0.278119259002356   0.624345869382449   1.0000000
B2   B   0.889140950952431   0.277937374611448   0.625179064250217   1.0000000
B2   B   0.222272302954480   0.777788711122752   0.124974144009321   1.0000000
B2   B   0.055607970140043   0.277872075574072   0.124849541403148   1.0000000
B2   B   0.388842325767201   0.277772115711209   0.126168340706254   1.0000000
B2   B   0.555644260595284   0.777870975567804   0.125030421115346   1.0000000
B2   B   0.889132742347772   0.777907060141166   0.124825071410421   1.0000000
B2   B   0.722635443290873   0.278036306996290   0.124858782724607   1.0000000
B2   B   0.055610562519241   0.944432334156369   0.625140689051465   1.0000000
B2   B   0.388886837418461   0.944351831799161   0.624885402256850   1.0000000
B2   B   0.222212373883764   0.444599613606592   0.624902807169611   1.0000000
B2   B   0.556021718582733   0.444668274069478   0.624761515398571   1.0000000
B2   B   0.722323474387588   0.944488522311728   0.625017754071088   1.0000000
B2   B   0.889215591365581   0.444657921568786   0.625373864644542   1.0000000
B2   B   0.055710532941641   0.444608005194593   0.124889451236611   1.0000000
B2   B   0.222225824699462   0.944360628341120   0.125067612769267   1.0000000
B2   B   0.555609230093413   0.944431422027449   0.125015348634067   1.0000000
B2   B   0.388923789806334   0.444629883340532   0.125685514891515   1.0000000
B2   B   0.889001183909294   0.944493429663327   0.124900132026521   1.0000000
B2   B   0.722673283301171   0.444716541847570   0.124669770910714   1.0000000
B2   B   0.222268171226194   0.611238077215652   0.625023501281208   1.0000000
B2   B   0.055547251779809   0.111089570186810   0.625216410672111   1.0000000
B2   B   0.555800877034797   0.611341498962159   0.624731741852338   1.0000000
B2   B   0.388879451553241   0.111002527560262   0.624079368406388   1.0000000
B2   B   0.889212445660939   0.611299534708395   0.625379210293559   1.0000000
B2   B   0.055736235941440   0.611245260398468   0.124868956208654   1.0000000
B2   B   0.722403139629442   0.111173619553750   0.625047770993747   1.0000000
B2   B   0.222128195010486   0.111003159096705   0.125112046192548   1.0000000
B2   B   0.388910988809373   0.611292511525260   0.125160017949078   1.0000000
B2   B   0.722651058351117   0.611344576695641   0.124703789478195   1.0000000
B2   B   0.555698059801537   0.111120980294649   0.125371003579339   1.0000000
B2   B   0.388910988809373   0.611292511525260   0.624839982050917   1.0000000
B2   B   0.889000036896394   0.111166508468506   0.124882831415624   1.0000000
B2   B   0.222272302954480   0.777788711122752   0.625025855990666   1.0000000
B2   B   0.055607970140043   0.277872075574072   0.625150458596865   1.0000000
B2   B   0.388842325767201   0.277772115711209   0.623831659293707   1.0000000
B2   B   0.555644260595284   0.777870975567804   0.624969578884630   1.0000000
B2   B   0.889132742347772   0.777907060141166   0.625174928589581   1.0000000
B2   B   0.722635443290873   0.278036306996290   0.625141217275399   1.0000000
B2   B   0.055712971347586   0.777844583724484   0.124894414000530   1.0000000
B2   B   0.388903020061232   0.777813649785782   0.124990494487972   1.0000000
B2   B   0.222120820032526   0.277776846451374   0.125085977016217   1.0000000
B2   B   0.722424612783538   0.777912936373975   0.124932063785723   1.0000000
B2   B   0.555967653902091   0.278119259002356   0.125654130617525   1.0000000
B2   B   0.889140950952431   0.277937374611448   0.124820935749766   1.0000000
B2   B   0.055710532941641   0.444608005194593   0.625110548763398   1.0000000
B2   B   0.222225824699462   0.944360628341120   0.624932387230707   1.0000000
B2   B   0.555609230093415   0.944431422027449   0.624984651365949   1.0000000
B2   B   0.388923789806334   0.444629883340532   0.624314485108508   1.0000000
B2   B   0.889001183909294   0.944493429663327   0.625099867973481   1.0000000
B2   B   0.055610562519241   0.944432334156369   0.124859310948535   1.0000000
B2   B   0.722673283301172   0.444716541847570   0.625330229089261   1.0000000
B2   B   0.388886837418461   0.944351831799161   0.125114597743151   1.0000000
B2   B   0.222212373883764   0.444599613606592   0.125097192830406   1.0000000
B2   B   0.222268171226194   0.611238077215652   0.124976498718786   1.0000000
B2   B   0.556021718582733   0.444668274069478   0.125238484601409   1.0000000
B2   B   0.722323474387588   0.944488522311728   0.124982245928915   1.0000000
B2   B   0.889215591365581   0.444657921568786   0.124626135355455   1.0000000
B2   B   0.055736235941440   0.611245260398468   0.625131043791349   1.0000000
B2   B   0.222128195010486   0.111003159096705   0.624887953807475   1.0000000
B2   B   0.722651058351116   0.611344576695641   0.625296210521817   1.0000000
B2   B   0.555698059801537   0.111120980294649   0.624628996420657   1.0000000
B2   B   0.889000036896394   0.111166508468506   0.625117168584370   1.0000000


