data_1
_audit_creation_method   'vasp2cif'
_cell_length_a    17.52789999999977
_cell_length_b    17.52789999999977
_cell_length_c    15.0
_cell_angle_alpha    90.0
_cell_angle_beta    90.0
_cell_angle_gamma    119.99999999999916

_symmetry_space_group_name_H-M    'P 1'
loop_
_atom_site_label
_atom_site_type_symbol
_atom_site_fract_x
_atom_site_fract_y
_atom_site_fract_z
_atom_site_occupancy
B2   B   0.905141768557554   0.952724327458147   0.111023127017112   1.0000000
B2   B   0.904719250080923   0.095282518790079   0.111050379967979   1.0000000
B2   B   0.904705645563073   0.238088329529384   0.111053931665328   1.0000000
B2   B   0.904721072522212   0.380894805817967   0.111015677465644   1.0000000
B2   B   0.905146921904383   0.523858295348021   0.111015276422468   1.0000000
B2   B   0.906001802223741   0.667093402091326   0.111072210860435   1.0000000
B2   B   0.905995339915208   0.810345839401682   0.111049569709756   1.0000000
B2   B   0.047700231089090   0.952301491066911   0.111020771923833   1.0000000
B2   B   0.047277378308851   0.094859933634448   0.111023128207115   1.0000000
B2   B   0.047508995330166   0.237993139664639   0.111018554845899   1.0000000
B2   B   0.047510019930918   0.380953848887650   0.111032224969104   1.0000000
B2   B   0.047290293299836   0.523854692182097   0.111022681022944   1.0000000
B2   B   0.047729233759255   0.666849110009687   0.111036941477975   1.0000000
B2   B   0.047982174738325   0.809710601036939   0.111017364331765   1.0000000
B2   B   0.190291141983061   0.952019577300680   0.111017360795763   1.0000000
B2   B   0.189655870908321   0.094006403541791   0.111049567648755   1.0000000
B2   B   0.189452346713126   0.236718154158200   0.111024738532063   1.0000000
B2   B   0.190599862957918   0.381000545115945   0.111012394147571   1.0000000
B2   B   0.189473948046052   0.524166889051392   0.111055653649098   1.0000000
B2   B   0.189678283300720   0.667066760698944   0.111060063785637   1.0000000
B2   B   0.190310712337987   0.809690924000012   0.111013559473124   1.0000000
B2   B   0.333152557452314   0.952272407599751   0.111036938594977   1.0000000
B2   B   0.332908349755676   0.093999937525255   0.111072209856438   1.0000000
B2   B   0.331526880172795   0.234491396338139   0.111028132851157   1.0000000
B2   B   0.331927916854365   0.376510925389104   0.110989573096679   1.0000000
B2   B   0.331928554636074   0.526821220993065   0.110962888162682   1.0000000
B2   B   0.331555329629546   0.668446492982453   0.111068366651592   1.0000000
B2   B   0.332934891327050   0.810323401286278   0.111060062003638   1.0000000
B2   B   0.476146951733904   0.952711298151167   0.111022686318946   1.0000000
B2   B   0.476143425072976   0.094854747320617   0.111015290442471   1.0000000
B2   B   0.475820507758090   0.236725094463659   0.111049636026549   1.0000000
B2   B   0.473160936442025   0.376517992092903   0.111051845435734   1.0000000
B2   B   0.473180507995933   0.668073207614922   0.110962887833679   1.0000000
B2   B   0.475834897959610   0.810527881782944   0.111055653624094   1.0000000
B2   B   0.619047896002350   0.952491707793087   0.111032227702107   1.0000000
B2   B   0.619106852219033   0.095280541383789   0.111015684683643   1.0000000
B2   B   0.619044863382565   0.237999655106078   0.111026362586458   1.0000000
B2   B   0.618982767098491   0.381019032180507   0.111020125699504   1.0000000
B2   B   0.623483741972098   0.526840699268976   0.111051845261729   1.0000000
B2   B   0.623490732236897   0.668073681079630   0.110989570682681   1.0000000
B2   B   0.619001179614053   0.809401900655088   0.111012392312573   1.0000000
B2   B   0.762008582937354   0.952492752919833   0.111018557199899   1.0000000
B2   B   0.761913371373615   0.095296043444929   0.111053931169326   1.0000000
B2   B   0.761910492707427   0.238091130523573   0.111061391549942   1.0000000
B2   B   0.762002077273921   0.380956861244433   0.111026356009462   1.0000000
B2   B   0.763276774631342   0.524181264226915   0.111049628792549   1.0000000
B2   B   0.765510392739860   0.668474812384205   0.111028134410151   1.0000000
B2   B   0.763283501510796   0.810549316988875   0.111024739552068   1.0000000
C2   C   0.383185374693911   0.477303787327341   0.110874813660803   1.0000000
C2   C   0.476203535651407   0.523798003091593   0.110987352047613   1.0000000
C2   C   0.522704244569441   0.477297509302558   0.111124548506198   1.0000000
C2   C   0.522697759446660   0.616816125269087   0.110874817193799   1.0000000
N2   N   0.952859747532965   0.905219023760007   0.111013101866926   1.0000000
N2   N   0.952303963554978   0.047697756574022   0.111011984167516   1.0000000
N2   N   0.952316138789545   0.190507873290616   0.111025511503938   1.0000000
N2   N   0.952319433686587   0.333270427957170   0.111014719983351   1.0000000
N2   N   0.952316660773741   0.476058961483834   0.110977131135408   1.0000000
N2   N   0.952875976569416   0.619088014725660   0.111023357518232   1.0000000
N2   N   0.953100418338747   0.762271414408852   0.111035835093868   1.0000000
N2   N   0.095282027562239   0.904719738010764   0.110984333198903   1.0000000
N2   N   0.094782691158995   0.047141978960031   0.111013112373927   1.0000000
N2   N   0.094571020415525   0.189853378376369   0.110999559775981   1.0000000
N2   N   0.095345570566690   0.333387666797090   0.111001261222267   1.0000000
N2   N   0.094587138241003   0.476157742238893   0.111020004962681   1.0000000
N2   N   0.094805680517016   0.619078584486357   0.111020444190090   1.0000000
N2   N   0.095297437523928   0.762003686904183   0.110996898897356   1.0000000
N2   N   0.237997980722814   0.904704214855070   0.110996897974354   1.0000000
N2   N   0.237730328763147   0.046901359016249   0.111035824886865   1.0000000
N2   N   0.236740225787278   0.188660116311105   0.111018280060086   1.0000000
N2   N   0.237124585958186   0.331740694773366   0.110998332140880   1.0000000
N2   N   0.237129505130262   0.476791939714772   0.111006272577662   1.0000000
N2   N   0.236768537872732   0.619502747984541   0.111044758674644   1.0000000
N2   N   0.237754202962965   0.762247446480035   0.111032792593430   1.0000000
N2   N   0.380923059104641   0.905195942701983   0.111020434906089   1.0000000
N2   N   0.380913690588338   0.047125654282588   0.111023363078236   1.0000000
N2   N   0.380475584142781   0.188657458279283   0.111041409503925   1.0000000
N2   N   0.378540401601864   0.328508545419604   0.110992359244221   1.0000000
N2   N   0.378560345498915   0.621441409336082   0.111003372276426   1.0000000
N2   N   0.380499050788451   0.763233320982268   0.111044765556641   1.0000000
N2   N   0.523844034078113   0.905414664821998   0.111020010230680   1.0000000
N2   N   0.523942695337164   0.047684883332258   0.110977149132404   1.0000000
N2   N   0.523836294402793   0.189853505247917   0.111013726719173   1.0000000
N2   N   0.523191851582521   0.331752277858243   0.111008700176668   1.0000000
N2   N   0.523209796587232   0.762872307952741   0.111006267550665   1.0000000
N2   N   0.666614088428904   0.904656213589315   0.111001259927267   1.0000000
N2   N   0.666731284532827   0.047682240695412   0.111014722694349   1.0000000
N2   N   0.666729905571921   0.190503829490328   0.111023376758775   1.0000000
N2   N   0.666607243546596   0.333394514622403   0.111001961843678   1.0000000
N2   N   0.668249657108760   0.476809923444481   0.111008695333665   1.0000000
N2   N   0.671493249769396   0.621461246548140   0.110992360552223   1.0000000
N2   N   0.668260908605632   0.762877063903821   0.110998327355879   1.0000000
N2   N   0.810148304881630   0.905430687671473   0.110999561448982   1.0000000
N2   N   0.809493896544386   0.047685644372460   0.111025514969937   1.0000000
N2   N   0.809509105414646   0.190492552016353   0.111041645776331   1.0000000
N2   N   0.809497798833672   0.333271737689080   0.111023371242775   1.0000000
N2   N   0.810148219793085   0.476165423632209   0.111013707390172   1.0000000
N2   N   0.811344375269717   0.619526166903219   0.111041408873923   1.0000000
N2   N   0.811341611532904   0.763261467875723   0.111018284812082   1.0000000


