data_1
_audit_creation_method   'vasp2cif'
_cell_length_a    14.93631414619966
_cell_length_b    14.936314146199727
_cell_length_c    13.341276283792837
_cell_angle_alpha    90.0
_cell_angle_beta    90.0
_cell_angle_gamma    119.99999999999984

_symmetry_space_group_name_H-M    'P 1'
loop_
_atom_site_label
_atom_site_type_symbol
_atom_site_fract_x
_atom_site_fract_y
_atom_site_fract_z
_atom_site_occupancy
P2   P   0.444444444444443   0.388888888888886   0.375000000000000   1.0000000
N2   N   0.111105782909425   0.055539880573066   0.125142092295298   1.0000000
N2   N   0.611118932119996   0.555564540209983   0.125338148562947   1.0000000
N2   N   0.444434097663641   0.055539880573066   0.125142092295298   1.0000000
N2   N   0.944455773472158   0.555564719375647   0.125112368823324   1.0000000
N2   N   0.777777777777779   0.055555555555557   0.125087500867468   1.0000000
N2   N   0.111111111111114   0.722222222222221   0.624902035105155   1.0000000
N2   N   0.444434097663641   0.722227550423911   0.624857907704702   1.0000000
N2   N   0.277768793123352   0.222214401213339   0.624661851437053   1.0000000
N2   N   0.777793452760269   0.722227550423911   0.624857907704702   1.0000000
N2   N   0.611114085364949   0.222219247968387   0.624849962155601   1.0000000
N2   N   0.944445994076516   0.222229384264871   0.624902412495025   1.0000000
N2   N   0.277768613957689   0.722224387429847   0.125112368823324   1.0000000
N2   N   0.111105162603445   0.222219247968387   0.125150037844399   1.0000000
N2   N   0.444445608089987   0.222214401213339   0.125338148562947   1.0000000
N2   N   0.611114085364949   0.722228170729890   0.125150037844399   1.0000000
N2   N   0.944455773472158   0.722224387429847   0.125112368823324   1.0000000
N2   N   0.777783390188355   0.222229384264871   0.125097587504974   1.0000000
N2   N   0.111108945903489   0.888877559861171   0.624887631176675   1.0000000
N2   N   0.444432727325643   0.888883030329486   0.624898766997348   1.0000000
N2   N   0.277768793123352   0.388887725243342   0.624661851437053   1.0000000
N2   N   0.611118932119996   0.388887725243342   0.624661851437053   1.0000000
N2   N   0.777783390188355   0.888887339256813   0.624902412495025   1.0000000
N2   N   0.944450303003842   0.388900606007685   0.624898766997348   1.0000000
N2   N   0.111105782909425   0.388899235669687   0.125142092295298   1.0000000
N2   N   0.277768613957689   0.888877559861171   0.125112368823324   1.0000000
N2   N   0.611103949068465   0.888887339256813   0.125097587504974   1.0000000
N2   N   0.444444444444443   0.388888888888886   0.125725671728113   1.0000000
N2   N   0.944450303003842   0.888883030329486   0.125101233002652   1.0000000
N2   N   0.777793452760269   0.388899235669687   0.125142092295298   1.0000000
N2   N   0.277769951270987   0.555563382062349   0.624813842672753   1.0000000
N2   N   0.111105782909425   0.055539880573066   0.624857907704702   1.0000000
N2   N   0.611118932119996   0.555564540209983   0.624661851437053   1.0000000
N2   N   0.444434097663641   0.055539880573066   0.624857907704702   1.0000000
N2   N   0.944455773472158   0.555564719375647   0.624887631176675   1.0000000
N2   N   0.111108945903489   0.555564719375647   0.125112368823324   1.0000000
N2   N   0.777777777777779   0.055555555555557   0.624912499132532   1.0000000
N2   N   0.277769951270987   0.055539902541974   0.125186157327247   1.0000000
N2   N   0.444445608089987   0.555564540209983   0.125338148562947   1.0000000
N2   N   0.777793430791362   0.555563382062349   0.125186157327247   1.0000000
N2   N   0.611103949068465   0.055549943144980   0.125097587504974   1.0000000
N2   N   0.444445608089987   0.555564540209983   0.624661851437053   1.0000000
N2   N   0.944445994076516   0.055549943144980   0.125097587504974   1.0000000
N2   N   0.277768613957689   0.722224387429847   0.624887631176675   1.0000000
N2   N   0.111105162603445   0.222219247968387   0.624849962155601   1.0000000
N2   N   0.444445608089987   0.222214401213339   0.624661851437053   1.0000000
N2   N   0.611114085364949   0.722228170729890   0.624849962155601   1.0000000
N2   N   0.944455773472158   0.722224387429847   0.624887631176675   1.0000000
N2   N   0.777783390188355   0.222229384264871   0.624902412495025   1.0000000
N2   N   0.111111111111114   0.722222222222221   0.125097964894845   1.0000000
N2   N   0.444434097663641   0.722227550423911   0.125142092295298   1.0000000
N2   N   0.277768793123352   0.222214401213339   0.125338148562947   1.0000000
N2   N   0.777793452760269   0.722227550423911   0.125142092295298   1.0000000
N2   N   0.611114085364949   0.222219247968387   0.125150037844399   1.0000000
N2   N   0.944445994076516   0.222229384264871   0.125097587504974   1.0000000
N2   N   0.111105782909425   0.388899235669687   0.624857907704702   1.0000000
N2   N   0.277768613957689   0.888877559861171   0.624887631176675   1.0000000
N2   N   0.611103949068465   0.888887339256813   0.624902412495025   1.0000000
N2   N   0.444444444444443   0.388888888888886   0.624274328271887   1.0000000
N2   N   0.944450303003842   0.888883030329486   0.624898766997348   1.0000000
N2   N   0.111108945903489   0.888877559861171   0.125112368823324   1.0000000
N2   N   0.777793452760269   0.388899235669687   0.624857907704702   1.0000000
N2   N   0.444432727325643   0.888883030329486   0.125101233002652   1.0000000
N2   N   0.277768793123352   0.388887725243342   0.125338148562947   1.0000000
N2   N   0.277769951270987   0.555563382062349   0.125186157327247   1.0000000
N2   N   0.611118932119996   0.388887725243342   0.125338148562947   1.0000000
N2   N   0.777783390188355   0.888887339256813   0.125097587504974   1.0000000
N2   N   0.944450303003842   0.388900606007685   0.125101233002652   1.0000000
N2   N   0.111108945903489   0.555564719375647   0.624887631176675   1.0000000
N2   N   0.277769951270987   0.055539902541974   0.624813842672753   1.0000000
N2   N   0.777793430791362   0.555563382062349   0.624813842672753   1.0000000
N2   N   0.611103949068465   0.055549943144980   0.624902412495025   1.0000000
N2   N   0.944445994076516   0.055549943144980   0.624902412495025   1.0000000
N2   N   0.054924588956659   0.110672248669695   0.375000000000000   1.0000000
N2   N   0.555979476932893   0.611958953865785   0.375000000000000   1.0000000
N2   N   0.388211780650642   0.107986137028217   0.375000000000000   1.0000000
N2   N   0.889970496487395   0.611651914910368   0.375000000000000   1.0000000
N2   N   0.722331656699525   0.111001676633810   0.375000000000000   1.0000000
N2   N   0.055553471395855   0.777779861937480   0.875000000000000   1.0000000
N2   N   0.388894992147254   0.777780396131812   0.875000000000000   1.0000000
N2   N   0.222222107191628   0.277777720262482   0.875000000000000   1.0000000
N2   N   0.722222076510447   0.777780362905320   0.875000000000000   1.0000000
N2   N   0.555555613070854   0.277777720262482   0.875000000000000   1.0000000
N2   N   0.888887802282368   0.277775604564743   0.875000000000000   1.0000000
N2   N   0.222030100154622   0.777681716743979   0.375000000000000   1.0000000
N2   N   0.054924588956659   0.277585673620300   0.375000000000000   1.0000000
N2   N   0.383214358349396   0.266428716698800   0.375000000000000   1.0000000
N2   N   0.555747659713036   0.778408744376676   0.375000000000000   1.0000000
N2   N   0.889730418388576   0.778477728091766   0.375000000000000   1.0000000
N2   N   0.722661084663641   0.277585673620300   0.375000000000000   1.0000000
N2   N   0.055552937201524   0.944447929348778   0.875000000000000   1.0000000
N2   N   0.388894992147254   0.944447929348778   0.875000000000000   1.0000000
N2   N   0.222222947589870   0.444439737686132   0.875000000000000   1.0000000
N2   N   0.555552496049774   0.444442914691552   0.875000000000000   1.0000000
N2   N   0.722222587353122   0.944445174706244   0.875000000000000   1.0000000
N2   N   0.888885403984551   0.444438341186074   0.875000000000000   1.0000000
N2   N   0.054855605241570   0.444586023630145   0.375000000000000   1.0000000
N2   N   0.221681418422967   0.943362836845933   0.375000000000000   1.0000000
N2   N   0.555715963896382   0.944524648614856   0.375000000000000   1.0000000
N2   N   0.383214358349396   0.450118974983932   0.375000000000000   1.0000000
N2   N   0.888808684718473   0.944524648614856   0.375000000000000   1.0000000
N2   N   0.725347196305118   0.445121552682686   0.375000000000000   1.0000000
N2   N   0.222225017041089   0.611108316292246   0.875000000000000   1.0000000
N2   N   0.055552970428016   0.111111256822888   0.875000000000000   1.0000000
N2   N   0.555555613070854   0.611111226141708   0.875000000000000   1.0000000
N2   N   0.388893595647196   0.111116543237073   0.875000000000000   1.0000000
N2   N   0.888883299251151   0.611108316292246   0.875000000000000   1.0000000
N2   N   0.055651616589357   0.611303233178714   0.375000000000000   1.0000000
N2   N   0.722222587353122   0.111110745980214   0.875000000000000   1.0000000
N2   N   0.219774356377568   0.107986137028217   0.375000000000000   1.0000000
N2   N   0.388211780650642   0.613558976955767   0.375000000000000   1.0000000
N2   N   0.725347196305118   0.613558976955767   0.375000000000000   1.0000000
N2   N   0.555747659713036   0.110672248669695   0.375000000000000   1.0000000
N2   N   0.388893595647196   0.611110385743466   0.875000000000000   1.0000000
N2   N   0.888670019934278   0.111001676633810   0.375000000000000   1.0000000
N2   N   0.222226390541625   0.777779861937480   0.875000000000000   1.0000000
N2   N   0.055552970428016   0.277775046938463   0.875000000000000   1.0000000
N2   N   0.388890418641777   0.277780837283562   0.875000000000000   1.0000000
N2   N   0.555558286394873   0.777780362905320   0.875000000000000   1.0000000
N2   N   0.888885403984551   0.777780396131812   0.875000000000000   1.0000000
N2   N   0.722222076510447   0.277775046938463   0.875000000000000   1.0000000
N2   N   0.055651616589357   0.777681716743979   0.375000000000000   1.0000000
N2   N   0.388747309703183   0.778477728091766   0.375000000000000   1.0000000
N2   N   0.221374379467550   0.277353856400443   0.375000000000000   1.0000000
N2   N   0.722661084663641   0.778408744376676   0.375000000000000   1.0000000
N2   N   0.555979476932893   0.277353856400443   0.375000000000000   1.0000000
N2   N   0.888808684718473   0.277617369436953   0.375000000000000   1.0000000
N2   N   0.055552937201524   0.444438341186074   0.875000000000000   1.0000000
N2   N   0.222225017041089   0.944450034082178   0.875000000000000   1.0000000
N2   N   0.555557728768593   0.944445531050961   0.875000000000000   1.0000000
N2   N   0.388890418641777   0.444442914691552   0.875000000000000   1.0000000
N2   N   0.888887802282368   0.944445531050961   0.875000000000000   1.0000000
N2   N   0.054855605241570   0.943602914944753   0.375000000000000   1.0000000
N2   N   0.722216790096262   0.444439737686132   0.875000000000000   1.0000000
N2   N   0.388747309703183   0.943602914944753   0.375000000000000   1.0000000
N2   N   0.219774356377568   0.445121552682686   0.375000000000000   1.0000000
N2   N   0.221681418422967   0.611651914910368   0.375000000000000   1.0000000
N2   N   0.566904616634536   0.450118974983932   0.375000000000000   1.0000000
N2   N   0.722331656699525   0.944663313399050   0.375000000000000   1.0000000
N2   N   0.889730418388576   0.444586023630145   0.375000000000000   1.0000000
N2   N   0.055553471395855   0.611106942791711   0.875000000000000   1.0000000
N2   N   0.222222947589870   0.111116543237073   0.875000000000000   1.0000000
N2   N   0.722216790096262   0.611110385743466   0.875000000000000   1.0000000
N2   N   0.555558286394873   0.111111256822888   0.875000000000000   1.0000000
N2   N   0.888888158627085   0.111110745980214   0.875000000000000   1.0000000
B2   B   0.108887023498956   0.053634292843192   0.375000000000000   1.0000000
B2   B   0.616628206763882   0.561510228552361   0.375000000000000   1.0000000
B2   B   0.444747269344237   0.053634292843192   0.375000000000000   1.0000000
B2   B   0.945053504909501   0.555694518513973   0.375000000000000   1.0000000
B2   B   0.777777777777779   0.055555555555557   0.375000000000000   1.0000000
B2   B   0.111111111111114   0.722222222222221   0.875000000000000   1.0000000
B2   B   0.444457887581586   0.722259173469723   0.875000000000000   1.0000000
B2   B   0.277736556300240   0.222188861336108   0.875000000000000   1.0000000
B2   B   0.777801285888137   0.722259173469723   0.875000000000000   1.0000000
B2   B   0.611137008697052   0.222196324636284   0.875000000000000   1.0000000
B2   B   0.944418913613950   0.222206022269542   0.875000000000000   1.0000000
B2   B   0.277638814819362   0.722692319728863   0.375000000000000   1.0000000
B2   B   0.109397517254854   0.221365425294091   0.375000000000000   1.0000000
B2   B   0.444882021788479   0.216705126569453   0.375000000000000   1.0000000
B2   B   0.611967908039245   0.723935816078482   0.375000000000000   1.0000000
B2   B   0.945053504909501   0.722692319728863   0.375000000000000   1.0000000
B2   B   0.777988317938331   0.221813799694435   0.375000000000000   1.0000000
B2   B   0.111099763833148   0.888879251364430   0.875000000000000   1.0000000
B2   B   0.444458020333219   0.888895676833274   0.875000000000000   1.0000000
B2   B   0.277736556300240   0.388881028297461   0.875000000000000   1.0000000
B2   B   0.611144471997228   0.388881028297461   0.875000000000000   1.0000000
B2   B   0.777787108655593   0.888914419719379   0.875000000000000   1.0000000
B2   B   0.944437656500055   0.388875313000109   0.875000000000000   1.0000000
B2   B   0.108887023498956   0.388586063989092   0.375000000000000   1.0000000
B2   B   0.277638814819362   0.888279828423827   0.375000000000000   1.0000000
B2   B   0.611519533638900   0.889507851577224   0.375000000000000   1.0000000
B2   B   0.944289604136429   0.889043729196900   0.375000000000000   1.0000000
B2   B   0.779699040490143   0.388586063989092   0.375000000000000   1.0000000
B2   B   0.277762699454000   0.555570633879336   0.875000000000000   1.0000000
B2   B   0.111074159863612   0.055532047445198   0.875000000000000   1.0000000
B2   B   0.611144471997228   0.555596777033096   0.875000000000000   1.0000000
B2   B   0.444457887581586   0.055532047445198   0.875000000000000   1.0000000
B2   B   0.944454081968898   0.555553845802047   0.875000000000000   1.0000000
B2   B   0.110641013604472   0.555694518513973   0.375000000000000   1.0000000
B2   B   0.777777777777779   0.055555555555557   0.875000000000000   1.0000000
B2   B   0.276654443091383   0.053308886182767   0.375000000000000   1.0000000
B2   B   0.444882021788479   0.561510228552361   0.375000000000000   1.0000000
B2   B   0.780024447150569   0.556678890241952   0.375000000000000   1.0000000
B2   B   0.611519533638900   0.055345015395005   0.375000000000000   1.0000000
B2   B   0.444452305035868   0.555596777033096   0.875000000000000   1.0000000
B2   B   0.943825481756105   0.055345015395005   0.375000000000000   1.0000000
B2   B   0.277779487531289   0.722233569500187   0.875000000000000   1.0000000
B2   B   0.111059315939239   0.222196324636284   0.875000000000000   1.0000000
B2   B   0.444452305035868   0.222188861336108   0.875000000000000   1.0000000
B2   B   0.611137008697052   0.722274017394097   0.875000000000000   1.0000000
B2   B   0.944454081968898   0.722233569500187   0.875000000000000   1.0000000
B2   B   0.777787108655593   0.222206022269542   0.875000000000000   1.0000000
B2   B   0.111111111111114   0.722222222222221   0.375000000000000   1.0000000
B2   B   0.444747269344237   0.724446309834380   0.375000000000000   1.0000000
B2   B   0.271823104780974   0.216705126569453   0.375000000000000   1.0000000
B2   B   0.779699040490143   0.724446309834380   0.375000000000000   1.0000000
B2   B   0.611967908039245   0.221365425294091   0.375000000000000   1.0000000
B2   B   0.943825481756105   0.221813799694435   0.375000000000000   1.0000000
B2   B   0.111074159863612   0.388875445751742   0.875000000000000   1.0000000
B2   B   0.277779487531289   0.888879251364430   0.875000000000000   1.0000000
B2   B   0.611127311063794   0.888914419719379   0.875000000000000   1.0000000
B2   B   0.444444444444443   0.388888888888886   0.875000000000000   1.0000000
B2   B   0.944437656500055   0.888895676833274   0.875000000000000   1.0000000
B2   B   0.110641013604472   0.888279828423827   0.375000000000000   1.0000000
B2   B   0.777801285888137   0.388875445751742   0.875000000000000   1.0000000
B2   B   0.444754125060471   0.889043729196900   0.375000000000000   1.0000000
B2   B   0.271823104780974   0.388451311544850   0.375000000000000   1.0000000
B2   B   0.276654443091383   0.556678890241952   0.375000000000000   1.0000000
B2   B   0.616628206763882   0.388451311544850   0.375000000000000   1.0000000
B2   B   0.777988317938331   0.889507851577224   0.375000000000000   1.0000000
B2   B   0.944289604136429   0.388579208272857   0.375000000000000   1.0000000
B2   B   0.111099763833148   0.555553845802047   0.875000000000000   1.0000000
B2   B   0.277762699454000   0.055525398908001   0.875000000000000   1.0000000
B2   B   0.777807934425335   0.555570633879336   0.875000000000000   1.0000000
B2   B   0.611127311063794   0.055546224677743   0.875000000000000   1.0000000
B2   B   0.944418913613950   0.055546224677743   0.875000000000000   1.0000000
B2   B   0.055469278948562   0.111036317173225   0.124874030915569   1.0000000
B2   B   0.555634920885365   0.611269841770731   0.124767303844328   1.0000000
B2   B   0.388828009041031   0.110926190148784   0.124831044188126   1.0000000
B2   B   0.889007006533378   0.611170169933360   0.124888590287360   1.0000000
B2   B   0.722234583418836   0.111098749914500   0.124914811865772   1.0000000
B2   B   0.055572151860478   0.777761181472857   0.625090328578221   1.0000000
B2   B   0.388850038290058   0.777814951934631   0.625106527759427   1.0000000
B2   B   0.222063491562605   0.277698412447970   0.625232696155672   1.0000000
B2   B   0.722297016160111   0.777864054384773   0.625125969084432   1.0000000
B2   B   0.555634920885365   0.277698412447970   0.625232696155672   1.0000000
B2   B   0.888892594220967   0.277785188441941   0.625089983776097   1.0000000
B2   B   0.222189029612379   0.777761181472857   0.124909671421779   1.0000000
B2   B   0.055469278948562   0.277766295108673   0.124874030915569   1.0000000
B2   B   0.388783951157124   0.277567902314256   0.124595558649907   1.0000000
B2   B   0.555567038224663   0.777864054384773   0.124874030915569   1.0000000
B2   B   0.888964913644566   0.777814951934631   0.124893472240573   1.0000000
B2   B   0.722297016160111   0.277766295108673   0.124874030915569   1.0000000
B2   B   0.055518381398705   0.944368419688763   0.625106527759427   1.0000000
B2   B   0.388850038290058   0.944368419688763   0.625106527759427   1.0000000
B2   B   0.222098181107746   0.444505324292297   0.625168955811874   1.0000000
B2   B   0.555765431019080   0.444549382176204   0.625404441350093   1.0000000
B2   B   0.722234583418836   0.944469166837672   0.625085188134228   1.0000000
B2   B   0.888964913644566   0.444483295043271   0.625106527759427   1.0000000
B2   B   0.055518381398705   0.444483295043271   0.124893472240573   1.0000000
B2   B   0.222163163399975   0.944326326799950   0.124888590287360   1.0000000
B2   B   0.555548144891394   0.944440739112362   0.124910016223903   1.0000000
B2   B   0.388783951157124   0.444549382176204   0.124595558649907   1.0000000
B2   B   0.888892594220967   0.944440739112362   0.124910016223903   1.0000000
B2   B   0.722407143184552   0.444505324292297   0.124831044188126   1.0000000
B2   B   0.222163163399975   0.611170169933360   0.625111409712640   1.0000000
B2   B   0.055469278948562   0.111036317173225   0.625125969084432   1.0000000
B2   B   0.555634920885365   0.611269841770731   0.625232696155672   1.0000000
B2   B   0.388828009041031   0.110926190148784   0.625168955811874   1.0000000
B2   B   0.889007006533378   0.611170169933360   0.625111409712640   1.0000000
B2   B   0.055572151860478   0.611144303720956   0.124909671421779   1.0000000
B2   B   0.722234583418836   0.111098749914500   0.625085188134228   1.0000000
B2   B   0.222098181107746   0.110926190148784   0.124831044188126   1.0000000
B2   B   0.388828009041031   0.611235152225590   0.124831044188126   1.0000000
B2   B   0.722407143184552   0.611235152225590   0.124831044188126   1.0000000
B2   B   0.555567038224663   0.111036317173225   0.124874030915569   1.0000000
B2   B   0.388828009041031   0.611235152225590   0.625168955811874   1.0000000
B2   B   0.888864166495656   0.111098749914500   0.124914811865772   1.0000000
B2   B   0.222189029612379   0.777761181472857   0.625090328578221   1.0000000
B2   B   0.055469278948562   0.277766295108673   0.625125969084432   1.0000000
B2   B   0.388783951157124   0.277567902314256   0.625404441350093   1.0000000
B2   B   0.555567038224663   0.777864054384773   0.625125969084432   1.0000000
B2   B   0.888964913644566   0.777814951934631   0.625106527759427   1.0000000
B2   B   0.722297016160111   0.277766295108673   0.625125969084432   1.0000000
B2   B   0.055572151860478   0.777761181472857   0.124909671421779   1.0000000
B2   B   0.388850038290058   0.777814951934631   0.124893472240573   1.0000000
B2   B   0.222063491562605   0.277698412447970   0.124767303844328   1.0000000
B2   B   0.722297016160111   0.777864054384773   0.124874030915569   1.0000000
B2   B   0.555634920885365   0.277698412447970   0.124767303844328   1.0000000
B2   B   0.888892594220967   0.277785188441941   0.124910016223903   1.0000000
B2   B   0.055518381398705   0.444483295043271   0.625106527759427   1.0000000
B2   B   0.222163163399975   0.944326326799950   0.625111409712640   1.0000000
B2   B   0.555548144891394   0.944440739112362   0.625089983776097   1.0000000
B2   B   0.388783951157124   0.444549382176204   0.625404441350093   1.0000000
B2   B   0.888892594220967   0.944440739112362   0.625089983776097   1.0000000
B2   B   0.055518381398705   0.944368419688763   0.124893472240573   1.0000000
B2   B   0.722407143184552   0.444505324292297   0.625168955811874   1.0000000
B2   B   0.388850038290058   0.944368419688763   0.124893472240573   1.0000000
B2   B   0.222098181107746   0.444505324292297   0.124831044188126   1.0000000
B2   B   0.222163163399975   0.611170169933360   0.124888590287360   1.0000000
B2   B   0.555765431019080   0.444549382176204   0.124595558649907   1.0000000
B2   B   0.722234583418836   0.944469166837672   0.124914811865772   1.0000000
B2   B   0.888964913644566   0.444483295043271   0.124893472240573   1.0000000
B2   B   0.055572151860478   0.611144303720956   0.625090328578221   1.0000000
B2   B   0.222098181107746   0.110926190148784   0.625168955811874   1.0000000
B2   B   0.722407143184552   0.611235152225590   0.625168955811874   1.0000000
B2   B   0.555567038224663   0.111036317173225   0.625125969084432   1.0000000
B2   B   0.888864166495656   0.111098749914500   0.625085188134228   1.0000000


