data_1
_audit_creation_method   'vasp2cif'
_cell_length_a    14.93631414619966
_cell_length_b    14.936314146199727
_cell_length_c    13.341276283792837
_cell_angle_alpha    90.0
_cell_angle_beta    90.0
_cell_angle_gamma    119.99999999999984

_symmetry_space_group_name_H-M    'P 1'
loop_
_atom_site_label
_atom_site_type_symbol
_atom_site_fract_x
_atom_site_fract_y
_atom_site_fract_z
_atom_site_occupancy
S2   S   0.444444444444443   0.388888888888886   0.375000000000000   1.0000000
N2   N   0.111125698090214   0.055585209565813   0.124955987958638   1.0000000
N2   N   0.611065023073953   0.555534447568195   0.123842815368515   1.0000000
N2   N   0.444459511475608   0.055585209565813   0.124955987958638   1.0000000
N2   N   0.944423357705480   0.555543295457631   0.124958601652035   1.0000000
N2   N   0.777777777777779   0.055555555555557   0.124812530472144   1.0000000
N2   N   0.111111111111114   0.722222222222221   0.625020596647366   1.0000000
N2   N   0.444459511475608   0.722207635243103   0.625044012041363   1.0000000
N2   N   0.277798885765143   0.222268310259369   0.626157184631476   1.0000000
N2   N   0.777748123767526   0.722207635243103   0.625044012041363   1.0000000
N2   N   0.611117579329549   0.222215754003787   0.625223785351440   1.0000000
N2   N   0.944434761660854   0.222217353197179   0.625182479773270   1.0000000
N2   N   0.277790037875696   0.722213395581190   0.124958601652035   1.0000000
N2   N   0.111098174674252   0.222215754003787   0.124776214648541   1.0000000
N2   N   0.444469424494236   0.222268310259369   0.123842815368515   1.0000000
N2   N   0.611117579329549   0.722235158659088   0.124776214648541   1.0000000
N2   N   0.944423357705480   0.722213395581190   0.124958601652035   1.0000000
N2   N   0.777782591536319   0.222217353197179   0.124817520226733   1.0000000
N2   N   0.111119937752158   0.888909975627849   0.625041398347968   1.0000000
N2   N   0.444457242264986   0.888895287799151   0.625113370323989   1.0000000
N2   N   0.277798885765143   0.388863908839093   0.626157184631476   1.0000000
N2   N   0.611065023073953   0.388863908839093   0.626157184631476   1.0000000
N2   N   0.777782591536319   0.888898571672474   0.625182479773270   1.0000000
N2   N   0.944438045534177   0.388876091068343   0.625113370323989   1.0000000
N2   N   0.111125698090214   0.388873821857721   0.124955987958638   1.0000000
N2   N   0.277790037875696   0.888909975627849   0.124958601652035   1.0000000
N2   N   0.611115980136136   0.888898571672474   0.124817520226733   1.0000000
N2   N   0.444444444444443   0.388888888888886   0.117985612909336   1.0000000
N2   N   0.944438045534177   0.888895287799151   0.124886629675994   1.0000000
N2   N   0.777748123767526   0.388873821857721   0.124955987958638   1.0000000
N2   N   0.277796477908644   0.555536855424700   0.625138870524299   1.0000000
N2   N   0.111125698090214   0.055585209565813   0.625044012041363   1.0000000
N2   N   0.611065023073953   0.555534447568195   0.626157184631476   1.0000000
N2   N   0.444459511475608   0.055585209565813   0.625044012041363   1.0000000
N2   N   0.944423357705480   0.555543295457631   0.625041398347968   1.0000000
N2   N   0.111119937752158   0.555543295457631   0.124958601652035   1.0000000
N2   N   0.777777777777779   0.055555555555557   0.625187469527845   1.0000000
N2   N   0.277796477908644   0.055592955817277   0.124861129475693   1.0000000
N2   N   0.444469424494236   0.555534447568195   0.123842815368515   1.0000000
N2   N   0.777740377516047   0.555536855424700   0.124861129475693   1.0000000
N2   N   0.611115980136136   0.055550741797013   0.124817520226733   1.0000000
N2   N   0.444469424494236   0.555534447568195   0.626157184631476   1.0000000
N2   N   0.944434761660854   0.055550741797013   0.124817520226733   1.0000000
N2   N   0.277790037875696   0.722213395581190   0.625041398347968   1.0000000
N2   N   0.111098174674252   0.222215754003787   0.625223785351440   1.0000000
N2   N   0.444469424494236   0.222268310259369   0.626157184631476   1.0000000
N2   N   0.611117579329549   0.722235158659088   0.625223785351440   1.0000000
N2   N   0.944423357705480   0.722213395581190   0.625041398347968   1.0000000
N2   N   0.777782591536319   0.222217353197179   0.625182479773270   1.0000000
N2   N   0.111111111111114   0.722222222222221   0.124979403352658   1.0000000
N2   N   0.444459511475608   0.722207635243103   0.124955987958638   1.0000000
N2   N   0.277798885765143   0.222268310259369   0.123842815368515   1.0000000
N2   N   0.777748123767526   0.722207635243103   0.124955987958638   1.0000000
N2   N   0.611117579329549   0.222215754003787   0.124776214648541   1.0000000
N2   N   0.944434761660854   0.222217353197179   0.124817520226733   1.0000000
N2   N   0.111125698090214   0.388873821857721   0.625044012041363   1.0000000
N2   N   0.277790037875696   0.888909975627849   0.625041398347968   1.0000000
N2   N   0.611115980136136   0.888898571672474   0.625182479773270   1.0000000
N2   N   0.444444444444443   0.388888888888886   0.632014387090652   1.0000000
N2   N   0.944438045534177   0.888895287799151   0.625113370323989   1.0000000
N2   N   0.111119937752158   0.888909975627849   0.124958601652035   1.0000000
N2   N   0.777748123767526   0.388873821857721   0.625044012041363   1.0000000
N2   N   0.444457242264986   0.888895287799151   0.124886629675994   1.0000000
N2   N   0.277798885765143   0.388863908839093   0.123842815368515   1.0000000
N2   N   0.277796477908644   0.555536855424700   0.124861129475693   1.0000000
N2   N   0.611065023073953   0.388863908839093   0.123842815368515   1.0000000
N2   N   0.777782591536319   0.888898571672474   0.124817520226733   1.0000000
N2   N   0.944438045534177   0.388876091068343   0.124886629675994   1.0000000
N2   N   0.111119937752158   0.555543295457631   0.625041398347968   1.0000000
N2   N   0.277796477908644   0.055592955817277   0.625138870524299   1.0000000
N2   N   0.777740377516047   0.555536855424700   0.625138870524299   1.0000000
N2   N   0.611115980136136   0.055550741797013   0.625182479773270   1.0000000
N2   N   0.944434761660854   0.055550741797013   0.625182479773270   1.0000000
N2   N   0.054393337004813   0.110345493325617   0.375000000000000   1.0000000
N2   N   0.556042930239134   0.612085860478242   0.375000000000000   1.0000000
N2   N   0.387444117034490   0.103615168363490   0.375000000000000   1.0000000
N2   N   0.891562859157430   0.612448096245386   0.375000000000000   1.0000000
N2   N   0.722431623834310   0.110901709499034   0.375000000000000   1.0000000
N2   N   0.055560282812593   0.777773050520744   0.875000000000000   1.0000000
N2   N   0.388891878561938   0.777773455784176   0.875000000000000   1.0000000
N2   N   0.222228078950767   0.277780706142054   0.875000000000000   1.0000000
N2   N   0.722224209538121   0.777768074051458   0.875000000000000   1.0000000
N2   N   0.555552627191280   0.277780706142054   0.875000000000000   1.0000000
N2   N   0.888890287841350   0.277780575682724   0.875000000000000   1.0000000
N2   N   0.221691932338961   0.777512632836150   0.375000000000000   1.0000000
N2   N   0.054393337004813   0.277381177012533   0.375000000000000   1.0000000
N2   N   0.375974724095780   0.251949448191561   0.375000000000000   1.0000000
N2   N   0.555952156320811   0.778939996328522   0.375000000000000   1.0000000
N2   N   0.890998086818592   0.779437654394842   0.375000000000000   1.0000000
N2   N   0.722987840007708   0.277381177012533   0.375000000000000   1.0000000
N2   N   0.055559877549176   0.944451756111098   0.875000000000000   1.0000000
N2   N   0.388891878561938   0.944451756111098   0.875000000000000   1.0000000
N2   N   0.222210520206889   0.444442706244354   0.875000000000000   1.0000000
N2   N   0.555572395082093   0.444452864207711   0.875000000000000   1.0000000
N2   N   0.722225222802956   0.944450445605904   0.875000000000000   1.0000000
N2   N   0.888881577222231   0.444441454771391   0.875000000000000   1.0000000
N2   N   0.053895678938495   0.444893765757095   0.375000000000000   1.0000000
N2   N   0.220885237087947   0.941770474175899   0.375000000000000   1.0000000
N2   N   0.555876774965976   0.944605054149676   0.375000000000000   1.0000000
N2   N   0.375974724095780   0.457358609237548   0.375000000000000   1.0000000
N2   N   0.888728279183652   0.944605054149676   0.375000000000000   1.0000000
N2   N   0.729718164969824   0.445889216298838   0.375000000000000   1.0000000
N2   N   0.222222419438493   0.611110913894840   0.875000000000000   1.0000000
N2   N   0.055565259281884   0.111109123795202   0.875000000000000   1.0000000
N2   N   0.555552627191280   0.611105254382564   0.875000000000000   1.0000000
N2   N   0.388890627088974   0.111101147295876   0.875000000000000   1.0000000
N2   N   0.888888494456359   0.611110913894840   0.875000000000000   1.0000000
N2   N   0.055820700497186   0.611641400994373   0.375000000000000   1.0000000
N2   N   0.722225222802956   0.111108110530384   0.875000000000000   1.0000000
N2   N   0.216171051328989   0.103615168363490   0.375000000000000   1.0000000
N2   N   0.387444117034490   0.617162282004346   0.375000000000000   1.0000000
N2   N   0.729718164969824   0.617162282004346   0.375000000000000   1.0000000
N2   N   0.555952156320811   0.110345493325617   0.375000000000000   1.0000000
N2   N   0.388890627088974   0.611122813126437   0.875000000000000   1.0000000
N2   N   0.888470085664718   0.110901709499034   0.375000000000000   1.0000000
N2   N   0.222212767708146   0.777773050520744   0.875000000000000   1.0000000
N2   N   0.055565259281884   0.277789468820016   0.875000000000000   1.0000000
N2   N   0.388880469125618   0.277760938251263   0.875000000000000   1.0000000
N2   N   0.555543864513318   0.777768074051458   0.875000000000000   1.0000000
N2   N   0.888881577222239   0.777773455784176   0.875000000000000   1.0000000
N2   N   0.722224209538121   0.277789468820016   0.875000000000000   1.0000000
N2   N   0.055820700497186   0.777512632836150   0.375000000000000   1.0000000
N2   N   0.388439567576233   0.779437654394842   0.375000000000000   1.0000000
N2   N   0.221247472855092   0.277290403094215   0.375000000000000   1.0000000
N2   N   0.722987840007708   0.778939996328522   0.375000000000000   1.0000000
N2   N   0.556042930239134   0.277290403094215   0.375000000000000   1.0000000
N2   N   0.888728279183652   0.277456558367368   0.375000000000000   1.0000000
N2   N   0.055559877549176   0.444441454771391   0.875000000000000   1.0000000
N2   N   0.222222419438494   0.944444838876970   0.875000000000000   1.0000000
N2   N   0.555552757650625   0.944443045491979   0.875000000000000   1.0000000
N2   N   0.388880469125618   0.444452864207711   0.875000000000000   1.0000000
N2   N   0.888890287841350   0.944443045491979   0.875000000000000   1.0000000
N2   N   0.053895678938495   0.942335246514736   0.375000000000000   1.0000000
N2   N   0.722232186037478   0.444442706244354   0.875000000000000   1.0000000
N2   N   0.388439567576233   0.942335246514736   0.375000000000000   1.0000000
N2   N   0.216171051328989   0.445889216298838   0.375000000000000   1.0000000
N2   N   0.220885237087947   0.612448096245386   0.375000000000000   1.0000000
N2   N   0.581383885141768   0.457358609237548   0.375000000000000   1.0000000
N2   N   0.722431623834310   0.944863247668611   0.375000000000000   1.0000000
N2   N   0.890998086818592   0.444893765757095   0.375000000000000   1.0000000
N2   N   0.055560282812593   0.611120565625181   0.875000000000000   1.0000000
N2   N   0.222210520206889   0.111101147295876   0.875000000000000   1.0000000
N2   N   0.722232186037478   0.611122813126437   0.875000000000000   1.0000000
N2   N   0.555543864513318   0.111109123795202   0.875000000000000   1.0000000
N2   N   0.888882887727425   0.111108110530384   0.875000000000000   1.0000000
B2   B   0.107578355694639   0.052162895272352   0.375000000000000   1.0000000
B2   B   0.619579311672558   0.561908856934373   0.375000000000000   1.0000000
B2   B   0.444584539577711   0.052162895272352   0.375000000000000   1.0000000
B2   B   0.945514122445447   0.555910255589854   0.375000000000000   1.0000000
B2   B   0.777777777777779   0.055555555555557   0.375000000000000   1.0000000
B2   B   0.111111111111114   0.722222222222221   0.875000000000000   1.0000000
B2   B   0.444437993857533   0.722187401224968   0.875000000000000   1.0000000
B2   B   0.277814089540650   0.222291032504356   0.875000000000000   1.0000000
B2   B   0.777749407367402   0.722187401224968   0.875000000000000   1.0000000
B2   B   0.611056570496038   0.222276762837316   0.875000000000000   1.0000000
B2   B   0.944440145858150   0.222260471888860   0.875000000000000   1.0000000
B2   B   0.277423077743483   0.722937200188915   0.375000000000000   1.0000000
B2   B   0.110781443542240   0.222057388437786   0.375000000000000   1.0000000
B2   B   0.442329545261841   0.213754021660781   0.375000000000000   1.0000000
B2   B   0.611275944895544   0.722551889791089   0.375000000000000   1.0000000
B2   B   0.945514122445447   0.722937200188915   0.375000000000000   1.0000000
B2   B   0.777839716257099   0.221817022011567   0.375000000000000   1.0000000
B2   B   0.111169959960464   0.888929792288333   0.875000000000000   1.0000000
B2   B   0.444492128118721   0.888912730726010   0.875000000000000   1.0000000
B2   B   0.277814089540650   0.388856390369612   0.875000000000000   1.0000000
B2   B   0.611042300828982   0.388856390369612   0.875000000000000   1.0000000
B2   B   0.777820326030703   0.888893187475178   0.875000000000000   1.0000000
B2   B   0.944420602607318   0.388841205214608   0.875000000000000   1.0000000
B2   B   0.107578355694639   0.388748793755618   0.375000000000000   1.0000000
B2   B   0.277423077743483   0.887819210887881   0.375000000000000   1.0000000
B2   B   0.611516311321761   0.889356027578863   0.375000000000000   1.0000000
B2   B   0.944267645035280   0.889065688298048   0.375000000000000   1.0000000
B2   B   0.781170438060965   0.388748793755618   0.375000000000000   1.0000000
B2   B   0.277769466187886   0.555563867145470   0.875000000000000   1.0000000
B2   B   0.111145932108378   0.055583925965916   0.875000000000000   1.0000000
B2   B   0.611042300828982   0.555519243792694   0.875000000000000   1.0000000
B2   B   0.444437993857533   0.055583925965916   0.875000000000000   1.0000000
B2   B   0.944403541044995   0.555573501005424   0.875000000000000   1.0000000
B2   B   0.110396133144417   0.555910255589854   0.375000000000000   1.0000000
B2   B   0.777777777777779   0.055555555555557   0.875000000000000   1.0000000
B2   B   0.276007563933765   0.052015127867531   0.375000000000000   1.0000000
B2   B   0.442329545261841   0.561908856934373   0.375000000000000   1.0000000
B2   B   0.781318205465805   0.557325769399567   0.375000000000000   1.0000000
B2   B   0.611516311321761   0.055493617076238   0.375000000000000   1.0000000
B2   B   0.444476942963717   0.555519243792694   0.875000000000000   1.0000000
B2   B   0.943977305754466   0.055493617076238   0.375000000000000   1.0000000
B2   B   0.277759832327891   0.722163373372861   0.875000000000000   1.0000000
B2   B   0.111220192341302   0.222276762837316   0.875000000000000   1.0000000
B2   B   0.444476942963717   0.222291032504356   0.875000000000000   1.0000000
B2   B   0.611056570496038   0.722113140992029   0.875000000000000   1.0000000
B2   B   0.944403541044995   0.722163373372861   0.875000000000000   1.0000000
B2   B   0.777820326030703   0.222260471888860   0.875000000000000   1.0000000
B2   B   0.111111111111114   0.722222222222221   0.375000000000000   1.0000000
B2   B   0.444584539577710   0.725754977638690   0.375000000000000   1.0000000
B2   B   0.271424476398945   0.213754021660781   0.375000000000000   1.0000000
B2   B   0.781170438060965   0.725754977638690   0.375000000000000   1.0000000
B2   B   0.611275944895544   0.222057388437786   0.375000000000000   1.0000000
B2   B   0.943977305754466   0.221817022011567   0.375000000000000   1.0000000
B2   B   0.111145932108378   0.388895339475795   0.875000000000000   1.0000000
B2   B   0.277759832327891   0.888929792288333   0.875000000000000   1.0000000
B2   B   0.611072861444477   0.888893187475178   0.875000000000000   1.0000000
B2   B   0.444444444444443   0.388888888888886   0.875000000000000   1.0000000
B2   B   0.944420602607318   0.888912730726010   0.875000000000000   1.0000000
B2   B   0.110396133144417   0.887819210887881   0.375000000000000   1.0000000
B2   B   0.777749407367402   0.388895339475795   0.875000000000000   1.0000000
B2   B   0.444798043262796   0.889065688298048   0.375000000000000   1.0000000
B2   B   0.271424476398945   0.391003788071488   0.375000000000000   1.0000000
B2   B   0.276007563933765   0.557325769399567   0.375000000000000   1.0000000
B2   B   0.619579311672558   0.391003788071488   0.375000000000000   1.0000000
B2   B   0.777839716257099   0.889356027578863   0.375000000000000   1.0000000
B2   B   0.944267645035280   0.388535290070533   0.375000000000000   1.0000000
B2   B   0.111169959960464   0.555573501005424   0.875000000000000   1.0000000
B2   B   0.277769466187886   0.055538932375764   0.875000000000000   1.0000000
B2   B   0.777794400957565   0.555563867145470   0.875000000000000   1.0000000
B2   B   0.611072861444477   0.055513007302642   0.875000000000000   1.0000000
B2   B   0.944440145858150   0.055513007302642   0.875000000000000   1.0000000
B2   B   0.055646112955445   0.111175074248494   0.124979154004281   1.0000000
B2   B   0.555461001607933   0.610922003215882   0.124489124431422   1.0000000
B2   B   0.388987043596774   0.111344700313614   0.124929608523714   1.0000000
B2   B   0.888751541428085   0.611042437380699   0.125033410262871   1.0000000
B2   B   0.722228420490359   0.111104912842976   0.124881638095001   1.0000000
B2   B   0.055555460449676   0.777777872883667   0.624996314591360   1.0000000
B2   B   0.388950954185582   0.777721432814972   0.624976130111119   1.0000000
B2   B   0.222411330117459   0.277872331725395   0.625510875568585   1.0000000
B2   B   0.722158259084856   0.777687220377890   0.625020845995733   1.0000000
B2   B   0.555461001607933   0.277872331725395   0.625510875568585   1.0000000
B2   B   0.888881210082971   0.277762420165976   0.625092611944597   1.0000000
B2   B   0.222222412433986   0.777777872883667   0.125003685408627   1.0000000
B2   B   0.055646112955445   0.277804372040294   0.124979154004281   1.0000000
B2   B   0.389097468820212   0.278194937640435   0.122850341516728   1.0000000
B2   B   0.555528961293048   0.777687220377890   0.124979154004281   1.0000000
B2   B   0.888770478629398   0.777721432814972   0.125023869888876   1.0000000
B2   B   0.722158259084856   0.277804372040294   0.124979154004281   1.0000000
B2   B   0.055611900518366   0.944562854703931   0.624976130111119   1.0000000
B2   B   0.388950954185582   0.944562854703931   0.624976130111119   1.0000000
B2   B   0.222357656716844   0.444346289736554   0.625070391476285   1.0000000
B2   B   0.555138395692904   0.444235864513116   0.627149658483254   1.0000000
B2   B   0.722228420490359   0.944456840980728   0.625118361904994   1.0000000
B2   B   0.888770478629398   0.444382379147746   0.624976130111119   1.0000000
B2   B   0.055611900518366   0.444382379147746   0.125023869888876   1.0000000
B2   B   0.222290895952628   0.944581791905244   0.125033410262871   1.0000000
B2   B   0.555570913167359   0.944452123250357   0.124907388055398   1.0000000
B2   B   0.389097468820212   0.444235864513116   0.122850341516728   1.0000000
B2   B   0.888881210082971   0.944452123250357   0.124907388055398   1.0000000
B2   B   0.721988633019707   0.444346289736554   0.124929608523714   1.0000000
B2   B   0.222290895952628   0.611042437380699   0.624966589737121   1.0000000
B2   B   0.055646112955445   0.111175074248494   0.625020845995733   1.0000000
B2   B   0.555461001607933   0.610922003215882   0.625510875568585   1.0000000
B2   B   0.388987043596774   0.111344700313614   0.625070391476285   1.0000000
B2   B   0.888751541428085   0.611042437380699   0.624966589737121   1.0000000
B2   B   0.055555460449676   0.611110920899337   0.125003685408627   1.0000000
B2   B   0.722228420490359   0.111104912842976   0.625118361904994   1.0000000
B2   B   0.222357656716844   0.111344700313614   0.124929608523714   1.0000000
B2   B   0.388987043596774   0.610975676616513   0.124929608523714   1.0000000
B2   B   0.721988633019707   0.610975676616513   0.124929608523714   1.0000000
B2   B   0.555528961293048   0.111175074248494   0.124979154004281   1.0000000
B2   B   0.388987043596774   0.610975676616513   0.625070391476285   1.0000000
B2   B   0.888876492352601   0.111104912842976   0.124881638095001   1.0000000
B2   B   0.222222412433986   0.777777872883667   0.624996314591360   1.0000000
B2   B   0.055646112955445   0.277804372040294   0.625020845995733   1.0000000
B2   B   0.389097468820212   0.278194937640435   0.627149658483254   1.0000000
B2   B   0.555528961293048   0.777687220377890   0.625020845995733   1.0000000
B2   B   0.888770478629398   0.777721432814972   0.624976130111119   1.0000000
B2   B   0.722158259084856   0.277804372040294   0.625020845995733   1.0000000
B2   B   0.055555460449676   0.777777872883667   0.125003685408627   1.0000000
B2   B   0.388950954185582   0.777721432814972   0.125023869888876   1.0000000
B2   B   0.222411330117459   0.277872331725395   0.124489124431422   1.0000000
B2   B   0.722158259084856   0.777687220377890   0.124979154004281   1.0000000
B2   B   0.555461001607933   0.277872331725395   0.124489124431422   1.0000000
B2   B   0.888881210082971   0.277762420165976   0.124907388055398   1.0000000
B2   B   0.055611900518366   0.444382379147746   0.624976130111119   1.0000000
B2   B   0.222290895952628   0.944581791905244   0.624966589737121   1.0000000
B2   B   0.555570913167359   0.944452123250357   0.625092611944597   1.0000000
B2   B   0.389097468820212   0.444235864513116   0.627149658483254   1.0000000
B2   B   0.888881210082971   0.944452123250357   0.625092611944597   1.0000000
B2   B   0.055611900518366   0.944562854703931   0.125023869888876   1.0000000
B2   B   0.721988633019707   0.444346289736554   0.625070391476285   1.0000000
B2   B   0.388950954185582   0.944562854703931   0.125023869888876   1.0000000
B2   B   0.222357656716844   0.444346289736554   0.124929608523714   1.0000000
B2   B   0.222290895952628   0.611042437380699   0.125033410262871   1.0000000
B2   B   0.555138395692904   0.444235864513116   0.122850341516728   1.0000000
B2   B   0.722228420490359   0.944456840980728   0.124881638095001   1.0000000
B2   B   0.888770478629398   0.444382379147746   0.125023869888876   1.0000000
B2   B   0.055555460449676   0.611110920899337   0.624996314591360   1.0000000
B2   B   0.222357656716844   0.111344700313614   0.625070391476285   1.0000000
B2   B   0.721988633019707   0.610975676616513   0.625070391476285   1.0000000
B2   B   0.555528961293048   0.111175074248494   0.625020845995733   1.0000000
B2   B   0.888876492352601   0.111104912842976   0.625118361904994   1.0000000


