data_1
_audit_creation_method   'vasp2cif'
_cell_length_a    14.93631414619966
_cell_length_b    14.936314146199727
_cell_length_c    13.341276283792837
_cell_angle_alpha    90.0
_cell_angle_beta    90.0
_cell_angle_gamma    119.99999999999984

_symmetry_space_group_name_H-M    'P 1'
loop_
_atom_site_label
_atom_site_type_symbol
_atom_site_fract_x
_atom_site_fract_y
_atom_site_fract_z
_atom_site_occupancy
O2   O   0.555555555555557   0.444444444444443   0.375000000000000   1.0000000
N2   N   0.111118231154794   0.055548525776891   0.124951445878375   1.0000000
N2   N   0.611098201740685   0.555529736814699   0.125748643374692   1.0000000
N2   N   0.444432862846587   0.055539425954734   0.124983377380512   1.0000000
N2   N   0.944460574045266   0.555567137153414   0.124983377380512   1.0000000
N2   N   0.777768165387904   0.055550749360620   0.124947826487993   1.0000000
N2   N   0.111117763596603   0.722225548464965   0.625053376863146   1.0000000
N2   N   0.444432862846587   0.722226770225188   0.625016622619488   1.0000000
N2   N   0.277789916187287   0.222218490225757   0.624933448504120   1.0000000
N2   N   0.777781509774244   0.722210083812712   0.624933448504120   1.0000000
N2   N   0.611095240705140   0.222218490225757   0.624933448504120   1.0000000
N2   N   0.944449250639380   0.222231834612096   0.625052173512008   1.0000000
N2   N   0.277774451535034   0.722225548464965   0.124946623136854   1.0000000
N2   N   0.111124340982167   0.222228837157748   0.124974097478706   1.0000000
N2   N   0.444440508049738   0.222214349432811   0.125174453909023   1.0000000
N2   N   0.611095240705140   0.722210083812712   0.125066551495880   1.0000000
N2   N   0.944460574045266   0.722226770225188   0.124983377380512   1.0000000
N2   N   0.777771162842252   0.222228837157748   0.124974097478706   1.0000000
N2   N   0.111117346116029   0.888882653883971   0.625052683345956   1.0000000
N2   N   0.444431974434613   0.888882653883971   0.625052683345956   1.0000000
N2   N   0.277789916187287   0.388904759294860   0.624933448504120   1.0000000
N2   N   0.611098201740685   0.388901798259315   0.624251356625309   1.0000000
N2   N   0.777771162842252   0.888875659017833   0.625025902521294   1.0000000
N2   N   0.944451474223108   0.388903038711231   0.625048554121625   1.0000000
N2   N   0.111118231154794   0.388903038711231   0.124951445878375   1.0000000
N2   N   0.277774451535034   0.888882236403397   0.124946623136854   1.0000000
N2   N   0.611096961288769   0.888881768845207   0.124951445878375   1.0000000
N2   N   0.444470263185301   0.388901798259315   0.125748643374692   1.0000000
N2   N   0.944451474223108   0.888881768845207   0.124951445878375   1.0000000
N2   N   0.777781509774244   0.388904759294860   0.125066551495880   1.0000000
N2   N   0.277773229774812   0.555567137153414   0.625016622619488   1.0000000
N2   N   0.111118231154794   0.055548525776891   0.625048554121625   1.0000000
N2   N   0.611098201740685   0.555529736814699   0.624251356625309   1.0000000
N2   N   0.444432862846587   0.055539425954734   0.625016622619488   1.0000000
N2   N   0.944460574045266   0.555567137153414   0.625016622619488   1.0000000
N2   N   0.111117346116029   0.555568025565387   0.124947316654044   1.0000000
N2   N   0.777768165387904   0.055550749360620   0.625052173512008   1.0000000
N2   N   0.277773229774812   0.055539425954734   0.124983377380512   1.0000000
N2   N   0.444440508049738   0.555559491950262   0.125174453909023   1.0000000
N2   N   0.777785650567189   0.555559491950262   0.125174453909023   1.0000000
N2   N   0.611096961288769   0.055548525776891   0.124951445878375   1.0000000
N2   N   0.444440508049738   0.555559491950262   0.624825546090976   1.0000000
N2   N   0.944449250639380   0.055550749360620   0.124947826487993   1.0000000
N2   N   0.277774451535034   0.722225548464965   0.625053376863146   1.0000000
N2   N   0.111124340982167   0.222228837157748   0.625025902521294   1.0000000
N2   N   0.444440508049738   0.222214349432811   0.624825546090976   1.0000000
N2   N   0.611095240705140   0.722210083812712   0.624933448504120   1.0000000
N2   N   0.944460574045266   0.722226770225188   0.625016622619488   1.0000000
N2   N   0.777771162842252   0.222228837157748   0.625025902521294   1.0000000
N2   N   0.111117763596603   0.722225548464965   0.124946623136854   1.0000000
N2   N   0.444432862846587   0.722226770225188   0.124983377380512   1.0000000
N2   N   0.277789916187287   0.222218490225757   0.125066551495880   1.0000000
N2   N   0.777781509774244   0.722210083812712   0.125066551495880   1.0000000
N2   N   0.611095240705140   0.222218490225757   0.125066551495880   1.0000000
N2   N   0.944449250639380   0.222231834612096   0.124947826487993   1.0000000
N2   N   0.111118231154794   0.388903038711231   0.625048554121625   1.0000000
N2   N   0.277774451535034   0.888882236403397   0.625053376863146   1.0000000
N2   N   0.611096961288769   0.888881768845207   0.625048554121625   1.0000000
N2   N   0.444470263185301   0.388901798259315   0.624251356625309   1.0000000
N2   N   0.944451474223108   0.888881768845207   0.625048554121625   1.0000000
N2   N   0.111117346116029   0.888882653883971   0.124947316654044   1.0000000
N2   N   0.777781509774244   0.388904759294860   0.624933448504120   1.0000000
N2   N   0.444431974434613   0.888882653883971   0.124947316654044   1.0000000
N2   N   0.277789916187287   0.388904759294860   0.125066551495880   1.0000000
N2   N   0.277773229774812   0.555567137153414   0.124983377380512   1.0000000
N2   N   0.611098201740685   0.388901798259315   0.125748643374692   1.0000000
N2   N   0.777771162842252   0.888875659017833   0.124974097478706   1.0000000
N2   N   0.944451474223108   0.388903038711231   0.124951445878375   1.0000000
N2   N   0.111117346116029   0.555568025565387   0.625052683345956   1.0000000
N2   N   0.277773229774812   0.055539425954734   0.625016622619488   1.0000000
N2   N   0.777785650567189   0.555559491950262   0.624825546090976   1.0000000
N2   N   0.611096961288769   0.055548525776891   0.625048554121625   1.0000000
N2   N   0.944449250639380   0.055550749360620   0.625052173512008   1.0000000
N2   N   0.055606455693941   0.111164982534671   0.375000000000000   1.0000000
N2   N   0.555415804370622   0.610163834415158   0.375000000000000   1.0000000
N2   N   0.389053939186012   0.111441211705366   0.375000000000000   1.0000000
N2   N   0.888558788294634   0.610946060813988   0.375000000000000   1.0000000
N2   N   0.722225193507394   0.111164982534671   0.375000000000000   1.0000000
N2   N   0.055555703612501   0.777778885855792   0.875000000000000   1.0000000
N2   N   0.388889848909954   0.777778885855792   0.875000000000000   1.0000000
N2   N   0.222221750902563   0.277777542117949   0.875000000000000   1.0000000
N2   N   0.722222457882051   0.777778249097437   0.875000000000000   1.0000000
N2   N   0.555558885185373   0.277777847979130   0.875000000000000   1.0000000
N2   N   0.888889276442443   0.277774633447114   0.875000000000000   1.0000000
N2   N   0.222222222222221   0.777777777777779   0.375000000000000   1.0000000
N2   N   0.055606455693941   0.277774806492605   0.375000000000000   1.0000000
N2   N   0.389836165584843   0.278585303288800   0.375000000000000   1.0000000
N2   N   0.555626133423818   0.777513427545122   0.375000000000000   1.0000000
N2   N   0.888553960787969   0.777513427545122   0.375000000000000   1.0000000
N2   N   0.722097143601207   0.277902856398792   0.375000000000000   1.0000000
N2   N   0.055554635291913   0.944445364708087   0.875000000000000   1.0000000
N2   N   0.388889848909954   0.944444296387499   0.875000000000000   1.0000000
N2   N   0.222213901033303   0.444444050773305   0.875000000000000   1.0000000
N2   N   0.555555555555557   0.444444444444443   0.875000000000000   1.0000000
N2   N   0.722225366552886   0.944447976328666   0.875000000000000   1.0000000
N2   N   0.888896816406667   0.444444050773305   0.875000000000000   1.0000000
N2   N   0.055519652007332   0.444372637347992   0.375000000000000   1.0000000
N2   N   0.222265610586318   0.944583152671392   0.375000000000000   1.0000000
N2   N   0.555627362652008   0.944480347992668   0.375000000000000   1.0000000
N2   N   0.389836165584843   0.444584195629379   0.375000000000000   1.0000000
N2   N   0.888835017465329   0.944393544306059   0.375000000000000   1.0000000
N2   N   0.721414696711200   0.444584195629379   0.375000000000000   1.0000000
N2   N   0.222221114144208   0.611110151090046   0.875000000000000   1.0000000
N2   N   0.055552023671334   0.111110723557556   0.875000000000000   1.0000000
N2   N   0.555558885185373   0.611114370539578   0.875000000000000   1.0000000
N2   N   0.388891538164994   0.111116409663332   0.875000000000000   1.0000000
N2   N   0.888883590336668   0.611108461835006   0.875000000000000   1.0000000
N2   N   0.055416847328607   0.611015791248261   0.375000000000000   1.0000000
N2   N   0.722225366552886   0.111110723557556   0.875000000000000   1.0000000
N2   N   0.222486572454878   0.111446039212032   0.375000000000000   1.0000000
N2   N   0.389053939186012   0.610946060813988   0.375000000000000   1.0000000
N2   N   0.721414696711200   0.610163834415158   0.375000000000000   1.0000000
N2   N   0.555626133423818   0.111446039212032   0.375000000000000   1.0000000
N2   N   0.388891538164994   0.611108461835006   0.875000000000000   1.0000000
N2   N   0.888888888888886   0.111111111111114   0.375000000000000   1.0000000
N2   N   0.222222222222221   0.777777777777779   0.875000000000000   1.0000000
N2   N   0.055552023671334   0.277774633447114   0.875000000000000   1.0000000
N2   N   0.388885629460422   0.277777847979130   0.875000000000000   1.0000000
N2   N   0.555555949226695   0.777786098966698   0.875000000000000   1.0000000
N2   N   0.888896816406667   0.777786098966698   0.875000000000000   1.0000000
N2   N   0.722222457882051   0.277777542117949   0.875000000000000   1.0000000
N2   N   0.055416847328607   0.777734389413681   0.375000000000000   1.0000000
N2   N   0.388984208751739   0.777734389413681   0.375000000000000   1.0000000
N2   N   0.222472379464249   0.277902856398792   0.375000000000000   1.0000000
N2   N   0.722097143601207   0.777527620535751   0.375000000000000   1.0000000
N2   N   0.555415804370622   0.278585303288800   0.375000000000000   1.0000000
N2   N   0.888835017465329   0.277774806492605   0.375000000000000   1.0000000
N2   N   0.055554635291913   0.444442603917155   0.875000000000000   1.0000000
N2   N   0.222221114144208   0.944444296387499   0.875000000000000   1.0000000
N2   N   0.555557396082845   0.944445364708087   0.875000000000000   1.0000000
N2   N   0.388885629460422   0.444441114814628   0.875000000000000   1.0000000
N2   N   0.888889276442443   0.944447976328666   0.875000000000000   1.0000000
N2   N   0.055519652007332   0.944480347992668   0.375000000000000   1.0000000
N2   N   0.722222152020871   0.444441114814628   0.875000000000000   1.0000000
N2   N   0.388984208751739   0.944583152671392   0.375000000000000   1.0000000
N2   N   0.222486572454878   0.444373866576182   0.375000000000000   1.0000000
N2   N   0.222265610586318   0.611015791248261   0.375000000000000   1.0000000
N2   N   0.722225193507394   0.944393544306059   0.375000000000000   1.0000000
N2   N   0.888553960787969   0.444373866576182   0.375000000000000   1.0000000
N2   N   0.055555703612501   0.611110151090046   0.875000000000000   1.0000000
N2   N   0.222213901033303   0.111103183593333   0.875000000000000   1.0000000
N2   N   0.722222152020871   0.611114370539578   0.875000000000000   1.0000000
N2   N   0.555555949226695   0.111103183593333   0.875000000000000   1.0000000
N2   N   0.888888888888886   0.111111111111114   0.875000000000000   1.0000000
B2   B   0.110961417855314   0.055545590952829   0.375000000000000   1.0000000
B2   B   0.612761411931786   0.558856157196900   0.375000000000000   1.0000000
B2   B   0.444502293257703   0.055414502416073   0.375000000000000   1.0000000
B2   B   0.944585497583927   0.555497706742297   0.375000000000000   1.0000000
B2   B   0.777862363505454   0.055597848419395   0.375000000000000   1.0000000
B2   B   0.111314711106831   0.722324022220080   0.875000000000000   1.0000000
B2   B   0.444349123085058   0.722049547337856   0.875000000000000   1.0000000
B2   B   0.277645026430215   0.222293070572041   0.875000000000000   1.0000000
B2   B   0.777706929427959   0.722354973569785   0.875000000000000   1.0000000
B2   B   0.611314710808497   0.222293070572041   0.875000000000000   1.0000000
B2   B   0.944341171580426   0.222015676494188   0.875000000000000   1.0000000
B2   B   0.277773336871101   0.722226663128899   0.375000000000000   1.0000000
B2   B   0.110784793167649   0.222059063250489   0.375000000000000   1.0000000
B2   B   0.444073321846374   0.221479977026084   0.375000000000000   1.0000000
B2   B   0.611488443358129   0.722846232864747   0.375000000000000   1.0000000
B2   B   0.944585497583927   0.722421124174966   0.375000000000000   1.0000000
B2   B   0.777940936749512   0.222059063250489   0.375000000000000   1.0000000
B2   B   0.111011820819706   0.888988179180294   0.875000000000000   1.0000000
B2   B   0.444643025027259   0.888988179180294   0.875000000000000   1.0000000
B2   B   0.277645026430215   0.388685289191503   0.875000000000000   1.0000000
B2   B   0.611037453307053   0.388962546692947   0.875000000000000   1.0000000
B2   B   0.777696148718795   0.888725630770920   0.875000000000000   1.0000000
B2   B   0.944650969444639   0.388979975174134   0.875000000000000   1.0000000
B2   B   0.110961417855314   0.388749160235813   0.375000000000000   1.0000000
B2   B   0.277773336871101   0.888880007075530   0.375000000000000   1.0000000
B2   B   0.611250839764187   0.889038582144686   0.375000000000000   1.0000000
B2   B   0.441143842803100   0.387238588068214   0.375000000000000   1.0000000
B2   B   0.944454409047170   0.889038582144686   0.375000000000000   1.0000000
B2   B   0.778024456173290   0.388511556641871   0.375000000000000   1.0000000
B2   B   0.277950452662144   0.555650876914942   0.875000000000000   1.0000000
B2   B   0.110995672396166   0.055349030555361   0.875000000000000   1.0000000
B2   B   0.611037453307053   0.555408239947435   0.875000000000000   1.0000000
B2   B   0.444349123085058   0.055632909080538   0.875000000000000   1.0000000
B2   B   0.944367090919463   0.555650876914942   0.875000000000000   1.0000000
B2   B   0.111066066076203   0.555465465485734   0.375000000000000   1.0000000
B2   B   0.777984323505811   0.055658828419574   0.875000000000000   1.0000000
B2   B   0.277578875825034   0.055414502416073   0.375000000000000   1.0000000
B2   B   0.444073321846374   0.555926678153626   0.375000000000000   1.0000000
B2   B   0.778520022973915   0.555926678153626   0.375000000000000   1.0000000
B2   B   0.611250839764187   0.055545590952829   0.375000000000000   1.0000000
B2   B   0.444333328323995   0.555666671676004   0.875000000000000   1.0000000
B2   B   0.944402151580605   0.055597848419395   0.375000000000000   1.0000000
B2   B   0.277675977779920   0.722324022220080   0.875000000000000   1.0000000
B2   B   0.111274369229080   0.222303851281204   0.875000000000000   1.0000000
B2   B   0.444333328323995   0.221999989981326   0.875000000000000   1.0000000
B2   B   0.611314710808497   0.722354973569785   0.875000000000000   1.0000000
B2   B   0.944367090919463   0.722049547337856   0.875000000000000   1.0000000
B2   B   0.777696148718795   0.222303851281204   0.875000000000000   1.0000000
B2   B   0.111119992924470   0.722226663128899   0.375000000000000   1.0000000
B2   B   0.444502293257703   0.722421124174966   0.375000000000000   1.0000000
B2   B   0.277153767135253   0.221975543826711   0.375000000000000   1.0000000
B2   B   0.778024456173290   0.722846232864747   0.375000000000000   1.0000000
B2   B   0.611488443358129   0.221975543826711   0.375000000000000   1.0000000
B2   B   0.944402151580605   0.222137636494546   0.375000000000000   1.0000000
B2   B   0.110995672396166   0.388979975174134   0.875000000000000   1.0000000
B2   B   0.277675977779920   0.888685288893169   0.875000000000000   1.0000000
B2   B   0.611020024825866   0.889004327603834   0.875000000000000   1.0000000
B2   B   0.444591760052566   0.388962546692947   0.875000000000000   1.0000000
B2   B   0.944650969444639   0.889004327603834   0.875000000000000   1.0000000
B2   B   0.111066066076203   0.888933933923797   0.375000000000000   1.0000000
B2   B   0.777706929427959   0.388685289191503   0.875000000000000   1.0000000
B2   B   0.444534534514266   0.888933933923797   0.375000000000000   1.0000000
B2   B   0.277153767135253   0.388511556641871   0.375000000000000   1.0000000
B2   B   0.277578875825034   0.555497706742297   0.375000000000000   1.0000000
B2   B   0.612761411931786   0.387238588068214   0.375000000000000   1.0000000
B2   B   0.777940936749512   0.889215206832351   0.375000000000000   1.0000000
B2   B   0.944454409047170   0.388749160235813   0.375000000000000   1.0000000
B2   B   0.111011820819706   0.555356974972741   0.875000000000000   1.0000000
B2   B   0.277950452662144   0.055632909080538   0.875000000000000   1.0000000
B2   B   0.778000010018674   0.555666671676004   0.875000000000000   1.0000000
B2   B   0.611020024825866   0.055349030555361   0.875000000000000   1.0000000
B2   B   0.944341171580426   0.055658828419574   0.875000000000000   1.0000000
B2   B   0.055528029731328   0.111080719724913   0.125104215907741   1.0000000
B2   B   0.555511810454741   0.611253172855611   0.125066070943472   1.0000000
B2   B   0.388798667327453   0.110930667988248   0.125006003033742   1.0000000
B2   B   0.889069332011752   0.611201332672548   0.125006003033742   1.0000000
B2   B   0.722219356660250   0.111080719724913   0.125104215907741   1.0000000
B2   B   0.055630676097071   0.777805328293703   0.624893950300347   1.0000000
B2   B   0.388841318863296   0.777805328293703   0.624893950300347   1.0000000
B2   B   0.222124899695217   0.277729116514277   0.624988293244327   1.0000000
B2   B   0.722270883485723   0.777875100304783   0.624988293244327   1.0000000
B2   B   0.555511810454741   0.277591970932466   0.624933929056527   1.0000000
B2   B   0.888919280275086   0.277780643339750   0.624895784092259   1.0000000
B2   B   0.222222222222221   0.777777777777779   0.125062638816213   1.0000000
B2   B   0.055528029731328   0.277780643339750   0.125104215907741   1.0000000
B2   B   0.388746827144389   0.277591970932466   0.125066070943472   1.0000000
B2   B   0.555516911381412   0.777856304744381   0.125068186305050   1.0000000
B2   B   0.889006060029633   0.777856304744381   0.125068186305050   1.0000000
B2   B   0.722270883485723   0.277729116514277   0.125011706755673   1.0000000
B2   B   0.055573101523594   0.944426898476406   0.624954887245772   1.0000000
B2   B   0.388841318863296   0.944369323902929   0.624893950300347   1.0000000
B2   B   0.222143695255619   0.444483088618588   0.624931813694950   1.0000000
B2   B   0.555555555555557   0.444444444444443   0.625282348757345   1.0000000
B2   B   0.722219356660250   0.944471970268672   0.624895784092259   1.0000000
B2   B   0.889006060029633   0.444483088618588   0.624931813694950   1.0000000
B2   B   0.055573101523594   0.444479536380516   0.125045112754228   1.0000000
B2   B   0.222194671706297   0.944369323902929   0.125106049699653   1.0000000
B2   B   0.555520463619484   0.944426898476406   0.125045112754228   1.0000000
B2   B   0.388746827144389   0.444488189545259   0.125066070943472   1.0000000
B2   B   0.888919280275086   0.944471970268672   0.125104215907741   1.0000000
B2   B   0.722408029067534   0.444488189545259   0.125066070943472   1.0000000
B2   B   0.222194671706297   0.611158681136704   0.624893950300347   1.0000000
B2   B   0.055528029731328   0.111080719724913   0.624895784092259   1.0000000
B2   B   0.555511810454741   0.611253172855611   0.624933929056527   1.0000000
B2   B   0.388798667327453   0.110930667988248   0.624993996966258   1.0000000
B2   B   0.889069332011752   0.611201332672548   0.624993996966258   1.0000000
B2   B   0.055630676097071   0.611158681136704   0.125106049699653   1.0000000
B2   B   0.722219356660250   0.111080719724913   0.624895784092259   1.0000000
B2   B   0.222143695255619   0.110993939970367   0.125068186305050   1.0000000
B2   B   0.388798667327453   0.611201332672548   0.125006003033742   1.0000000
B2   B   0.722408029067534   0.611253172855611   0.125066070943472   1.0000000
B2   B   0.555516911381412   0.110993939970367   0.125068186305050   1.0000000
B2   B   0.388798667327453   0.611201332672548   0.624993996966258   1.0000000
B2   B   0.888888888888886   0.111111111111114   0.125063284966657   1.0000000
B2   B   0.222222222222221   0.777777777777779   0.624937361183787   1.0000000
B2   B   0.055528029731328   0.277780643339750   0.624895784092259   1.0000000
B2   B   0.388746827144389   0.277591970932466   0.624933929056527   1.0000000
B2   B   0.555516911381412   0.777856304744381   0.624931813694950   1.0000000
B2   B   0.889006060029633   0.777856304744381   0.624931813694950   1.0000000
B2   B   0.722270883485723   0.277729116514277   0.624988293244327   1.0000000
B2   B   0.055630676097071   0.777805328293703   0.125106049699653   1.0000000
B2   B   0.388841318863296   0.777805328293703   0.125106049699653   1.0000000
B2   B   0.222124899695217   0.277729116514277   0.125011706755673   1.0000000
B2   B   0.722270883485723   0.777875100304783   0.125011706755673   1.0000000
B2   B   0.555511810454741   0.277591970932466   0.125066070943472   1.0000000
B2   B   0.888919280275086   0.277780643339750   0.125104215907741   1.0000000
B2   B   0.055573101523594   0.444479536380516   0.624954887245772   1.0000000
B2   B   0.222194671706297   0.944369323902929   0.624893950300347   1.0000000
B2   B   0.555520463619484   0.944426898476406   0.624954887245772   1.0000000
B2   B   0.388746827144389   0.444488189545259   0.624933929056527   1.0000000
B2   B   0.888919280275086   0.944471970268672   0.624895784092259   1.0000000
B2   B   0.055573101523594   0.944426898476406   0.125045112754228   1.0000000
B2   B   0.722408029067534   0.444488189545259   0.624933929056527   1.0000000
B2   B   0.388841318863296   0.944369323902929   0.125106049699653   1.0000000
B2   B   0.222143695255619   0.444483088618588   0.125068186305050   1.0000000
B2   B   0.222194671706297   0.611158681136704   0.125106049699653   1.0000000
B2   B   0.555555555555557   0.444444444444443   0.124717651242655   1.0000000
B2   B   0.722219356660250   0.944471970268672   0.125104215907741   1.0000000
B2   B   0.889006060029633   0.444483088618588   0.125068186305050   1.0000000
B2   B   0.055630676097071   0.611158681136704   0.624893950300347   1.0000000
B2   B   0.222143695255619   0.110993939970367   0.624931813694950   1.0000000
B2   B   0.722408029067534   0.611253172855611   0.624933929056527   1.0000000
B2   B   0.555516911381412   0.110993939970367   0.624931813694950   1.0000000
B2   B   0.888888888888886   0.111111111111114   0.624936715033344   1.0000000


