data_1
_audit_creation_method   'vasp2cif'
_cell_length_a    14.93631414619966
_cell_length_b    14.936314146199727
_cell_length_c    13.341276283792837
_cell_angle_alpha    90.0
_cell_angle_beta    90.0
_cell_angle_gamma    119.99999999999984

_symmetry_space_group_name_H-M    'P 1'
loop_
_atom_site_label
_atom_site_type_symbol
_atom_site_fract_x
_atom_site_fract_y
_atom_site_fract_z
_atom_site_occupancy
C2   C   0.599194378665822   0.381147921399162   0.375000000000000   1.0000000
C2   C   0.441679366050293   0.386411245592934   0.375000000000000   1.0000000
C2   C   0.548271253126997   0.436528288801716   0.375000000000000   1.0000000
N2   N   0.111044488811086   0.055514188841112   0.125056125007061   1.0000000
N2   N   0.611082031010565   0.555469934735008   0.124840060560020   1.0000000
N2   N   0.444421257170114   0.055547886115283   0.125088689481665   1.0000000
N2   N   0.944445922630569   0.555543103141024   0.125098020420915   1.0000000
N2   N   0.777735100181148   0.055526084213649   0.125036156248005   1.0000000
N2   N   0.111101166960178   0.722208779774153   0.624950636698453   1.0000000
N2   N   0.444427521625090   0.722183439233184   0.624956441375145   1.0000000
N2   N   0.277694878540058   0.222177472733961   0.624912482702988   1.0000000
N2   N   0.777732949547209   0.722143273185357   0.624882294715034   1.0000000
N2   N   0.611099382078601   0.222198700713223   0.625109921842143   1.0000000
N2   N   0.944395199927960   0.222200636595521   0.624937931887478   1.0000000
N2   N   0.277767674321248   0.722203977192660   0.125030571764371   1.0000000
N2   N   0.111033699979424   0.222174182212445   0.125037811086426   1.0000000
N2   N   0.444394090831951   0.222198266784548   0.125126861002888   1.0000000
N2   N   0.611078118892699   0.722149965580446   0.125091133339754   1.0000000
N2   N   0.944419500783513   0.722184430234343   0.125060363022549   1.0000000
N2   N   0.777745681832852   0.222217072929348   0.125109453472171   1.0000000
N2   N   0.111078802636385   0.888867360252687   0.624974828589425   1.0000000
N2   N   0.444427002902840   0.888871394886579   0.624982353191391   1.0000000
N2   N   0.277732201148030   0.388834865812068   0.624884709482940   1.0000000
N2   N   0.611047643550653   0.388793254505491   0.626525919504931   1.0000000
N2   N   0.777734645976730   0.888835059962379   0.624963002938104   1.0000000
N2   N   0.944430081041577   0.388884031334875   0.624944101953380   1.0000000
N2   N   0.111083383069913   0.388864469625610   0.125063512404410   1.0000000
N2   N   0.277763454617537   0.888879955533492   0.125037629710720   1.0000000
N2   N   0.611081186308355   0.888848768074470   0.125019734652779   1.0000000
N2   N   0.444360629896904   0.388809949835491   0.124276875659225   1.0000000
N2   N   0.944394333622191   0.888839536416878   0.125057062762110   1.0000000
N2   N   0.777767459554651   0.388890774701388   0.124742744370887   1.0000000
N2   N   0.277766429327448   0.555522884700836   0.624958102696021   1.0000000
N2   N   0.111044488811086   0.055514188841112   0.624943874992938   1.0000000
N2   N   0.611082031010565   0.555469934735008   0.625159939439979   1.0000000
N2   N   0.444421257170114   0.055547886115283   0.624911310518335   1.0000000
N2   N   0.944445922630569   0.555543103141024   0.624901979579086   1.0000000
N2   N   0.111104582701741   0.555540405200471   0.125041919211161   1.0000000
N2   N   0.777735100181148   0.055526084213649   0.624963843751995   1.0000000
N2   N   0.277735777693355   0.055536414035251   0.125111347737553   1.0000000
N2   N   0.444427691548759   0.555496682395305   0.125030639511553   1.0000000
N2   N   0.777757144313002   0.555491043417168   0.124832345038179   1.0000000
N2   N   0.611084239160575   0.055531787807653   0.125036546313990   1.0000000
N2   N   0.444427691548759   0.555496682395305   0.624969360488447   1.0000000
N2   N   0.944381650879797   0.055511232827904   0.125049025013426   1.0000000
N2   N   0.277767674321248   0.722203977192660   0.624969428235630   1.0000000
N2   N   0.111033699979424   0.222174182212445   0.624962188913575   1.0000000
N2   N   0.444394090831951   0.222198266784548   0.624873138997113   1.0000000
N2   N   0.611078118892699   0.722149965580446   0.624908866660246   1.0000000
N2   N   0.944419500783513   0.722184430234343   0.624939636977450   1.0000000
N2   N   0.777745681832852   0.222217072929348   0.624890546527830   1.0000000
N2   N   0.111101166960178   0.722208779774153   0.125049363301547   1.0000000
N2   N   0.444427521625090   0.722183439233184   0.125043558624855   1.0000000
N2   N   0.277694878540058   0.222177472733961   0.125087517297011   1.0000000
N2   N   0.777732949547209   0.722143273185357   0.125117705284966   1.0000000
N2   N   0.611099382078601   0.222198700713223   0.124890078157858   1.0000000
N2   N   0.944395199927960   0.222200636595521   0.125062068112522   1.0000000
N2   N   0.111083383069913   0.388864469625610   0.624936487595590   1.0000000
N2   N   0.277763454617537   0.888879955533492   0.624962370289279   1.0000000
N2   N   0.611081186308355   0.888848768074470   0.624980265347221   1.0000000
N2   N   0.444360629896904   0.388809949835491   0.625723124340775   1.0000000
N2   N   0.944394333622191   0.888839536416878   0.624942937237890   1.0000000
N2   N   0.111078802636385   0.888867360252687   0.125025171410575   1.0000000
N2   N   0.777767459554651   0.388890774701388   0.625257255629113   1.0000000
N2   N   0.444427002902840   0.888871394886579   0.125017646808609   1.0000000
N2   N   0.277732201148030   0.388834865812068   0.125115290517059   1.0000000
N2   N   0.277766429327448   0.555522884700836   0.125041897303979   1.0000000
N2   N   0.611047643550653   0.388793254505491   0.123474080495069   1.0000000
N2   N   0.777734645976730   0.888835059962379   0.125036997061895   1.0000000
N2   N   0.944430081041577   0.388884031334875   0.125055898046620   1.0000000
N2   N   0.111104582701741   0.555540405200471   0.624958080788838   1.0000000
N2   N   0.277735777693355   0.055536414035251   0.624888652262447   1.0000000
N2   N   0.777757144313002   0.555491043417168   0.625167654961820   1.0000000
N2   N   0.611084239160575   0.055531787807653   0.624963453686011   1.0000000
N2   N   0.944381650879797   0.055511232827904   0.624950974986573   1.0000000
N2   N   0.053823017067186   0.110481748188377   0.375000000000000   1.0000000
N2   N   0.557309124900210   0.609886865413993   0.375000000000000   1.0000000
N2   N   0.387270522330735   0.111164109006291   0.375000000000000   1.0000000
N2   N   0.891546629708903   0.610731291941873   0.375000000000000   1.0000000
N2   N   0.722535728118905   0.115639432577315   0.375000000000000   1.0000000
N2   N   0.055550683054499   0.777773862835351   0.875000000000000   1.0000000
N2   N   0.388880663740590   0.777772796207049   0.875000000000000   1.0000000
N2   N   0.222215360084041   0.277772770897097   0.875000000000000   1.0000000
N2   N   0.722213569083651   0.777773382227828   0.875000000000000   1.0000000
N2   N   0.555544529577888   0.277763643507134   0.875000000000000   1.0000000
N2   N   0.888882639015165   0.277773587532795   0.875000000000000   1.0000000
N2   N   0.224638720199656   0.779040727045143   0.375000000000000   1.0000000
N2   N   0.054264068562600   0.278102332004096   0.375000000000000   1.0000000
N2   N   0.385643389702432   0.278365951535162   0.375000000000000   1.0000000
N2   N   0.557075729601586   0.777743769952293   0.375000000000000   1.0000000
N2   N   0.888927722902369   0.775926946058982   0.375000000000000   1.0000000
N2   N   0.722808604488889   0.289064674486585   0.375000000000000   1.0000000
N2   N   0.055548281885865   0.944440682942615   0.875000000000000   1.0000000
N2   N   0.388882141372400   0.944436724985842   0.875000000000000   1.0000000
N2   N   0.222215488502753   0.444440200874244   0.875000000000000   1.0000000
N2   N   0.555545856691516   0.444444264758484   0.875000000000000   1.0000000
N2   N   0.722212295726174   0.944437987757467   0.875000000000000   1.0000000
N2   N   0.888888407938359   0.444442298809623   0.875000000000000   1.0000000
N2   N   0.056769308758393   0.445584513246678   0.375000000000000   1.0000000
N2   N   0.222195619411465   0.944387661150588   0.375000000000000   1.0000000
N2   N   0.556876661113774   0.946127170350968   0.375000000000000   1.0000000
N2   N   0.388736518735084   0.441129228950612   0.375000000000000   1.0000000
N2   N   0.888169575788829   0.943588783806344   0.375000000000000   1.0000000
N2   N   0.222212769969595   0.611105081778235   0.875000000000000   1.0000000
N2   N   0.055547121923804   0.111103001323480   0.875000000000000   1.0000000
N2   N   0.555545603179670   0.611105511253196   0.875000000000000   1.0000000
N2   N   0.388881353874775   0.111100430089667   0.875000000000000   1.0000000
N2   N   0.888887938615357   0.611108814525232   0.875000000000000   1.0000000
N2   N   0.059558168648929   0.613063400531603   0.375000000000000   1.0000000
N2   N   0.722210326121520   0.111102170539378   0.875000000000000   1.0000000
N2   N   0.220694050225910   0.110565509978046   0.375000000000000   1.0000000
N2   N   0.390696808073123   0.609962478129770   0.375000000000000   1.0000000
N2   N   0.723901914746435   0.602458492318712   0.375000000000000   1.0000000
N2   N   0.556326751303917   0.113982555865518   0.375000000000000   1.0000000
N2   N   0.388880490738586   0.611105456326908   0.875000000000000   1.0000000
N2   N   0.887941149271861   0.111905606989324   0.375000000000000   1.0000000
N2   N   0.222214991418266   0.777771789620292   0.875000000000000   1.0000000
N2   N   0.055548276061674   0.277772514064939   0.875000000000000   1.0000000
N2   N   0.388881333535751   0.277770235286089   0.875000000000000   1.0000000
N2   N   0.555545314299096   0.777771210311869   0.875000000000000   1.0000000
N2   N   0.888883786665055   0.777776419404409   0.875000000000000   1.0000000
N2   N   0.722215324004197   0.277770322233665   0.875000000000000   1.0000000
N2   N   0.056725099039097   0.777881422856866   0.375000000000000   1.0000000
N2   N   0.390989489140580   0.778351516217405   0.375000000000000   1.0000000
N2   N   0.219734164565319   0.276832053816305   0.375000000000000   1.0000000
N2   N   0.723024232837097   0.774707470908162   0.375000000000000   1.0000000
N2   N   0.551231903420786   0.276027145688641   0.375000000000000   1.0000000
N2   N   0.888221069679424   0.280189056819835   0.375000000000000   1.0000000
N2   N   0.055549214132231   0.444440953903984   0.875000000000000   1.0000000
N2   N   0.222215420849551   0.944437883447699   0.875000000000000   1.0000000
N2   N   0.555544138534122   0.944436930479089   0.875000000000000   1.0000000
N2   N   0.388881925511468   0.444443283354470   0.875000000000000   1.0000000
N2   N   0.888883411280117   0.944440759986852   0.875000000000000   1.0000000
N2   N   0.054735246022856   0.943665771158160   0.375000000000000   1.0000000
N2   N   0.722221581880919   0.444444234130227   0.875000000000000   1.0000000
N2   N   0.390282160368806   0.945895784582936   0.375000000000000   1.0000000
N2   N   0.223060714851915   0.444397873333239   0.375000000000000   1.0000000
N2   N   0.224816631562853   0.611832042028627   0.375000000000000   1.0000000
N2   N   0.722624198214490   0.945012736246974   0.375000000000000   1.0000000
N2   N   0.891163136841721   0.447903110060368   0.375000000000000   1.0000000
N2   N   0.055548983145497   0.611104576599657   0.875000000000000   1.0000000
N2   N   0.222213697826727   0.111103248658204   0.875000000000000   1.0000000
N2   N   0.722214447770488   0.611108105690830   0.875000000000000   1.0000000
N2   N   0.555543495960680   0.111097690282459   0.875000000000000   1.0000000
N2   N   0.888881196670962   0.111103832275872   0.875000000000000   1.0000000
B2   B   0.109471085665869   0.054812206931794   0.375000000000000   1.0000000
B2   B   0.612367662026846   0.553419640153941   0.375000000000000   1.0000000
B2   B   0.445044701562728   0.057248494694064   0.375000000000000   1.0000000
B2   B   0.949589854901465   0.558303166151925   0.375000000000000   1.0000000
B2   B   0.777039638958003   0.057470028831001   0.375000000000000   1.0000000
B2   B   0.111097827612538   0.722211569342065   0.875000000000000   1.0000000
B2   B   0.444438236111611   0.722213199164657   0.875000000000000   1.0000000
B2   B   0.277791084191799   0.222227624335457   0.875000000000000   1.0000000
B2   B   0.777758330564597   0.722196396315000   0.875000000000000   1.0000000
B2   B   0.611103220616404   0.222229284297601   0.875000000000000   1.0000000
B2   B   0.944430541640382   0.222219435033700   0.875000000000000   1.0000000
B2   B   0.280037950115555   0.723084664585017   0.375000000000000   1.0000000
B2   B   0.108799114495855   0.221603398866163   0.375000000000000   1.0000000
B2   B   0.440746225671259   0.221418992536228   0.375000000000000   1.0000000
B2   B   0.612190821567181   0.721267327109866   0.375000000000000   1.0000000
B2   B   0.945497688472615   0.721724076345865   0.375000000000000   1.0000000
B2   B   0.777143146724126   0.228809950036447   0.375000000000000   1.0000000
B2   B   0.111101587718634   0.888878406811510   0.875000000000000   1.0000000
B2   B   0.444438412775585   0.888884101866859   0.875000000000000   1.0000000
B2   B   0.277789553257687   0.388893217560476   0.875000000000000   1.0000000
B2   B   0.611106773500886   0.388894885086678   0.875000000000000   1.0000000
B2   B   0.777763005463648   0.888874088809771   0.875000000000000   1.0000000
B2   B   0.944428260972149   0.388889217624546   0.875000000000000   1.0000000
B2   B   0.111454873089517   0.389289775288711   0.375000000000000   1.0000000
B2   B   0.279185054331700   0.889998397770594   0.375000000000000   1.0000000
B2   B   0.611784260810699   0.889446785157413   0.375000000000000   1.0000000
B2   B   0.943505917148677   0.887527952765471   0.375000000000000   1.0000000
B2   B   0.780598541877166   0.404582297590858   0.375000000000000   1.0000000
B2   B   0.277776436305180   0.555553729509122   0.875000000000000   1.0000000
B2   B   0.111106510517849   0.055548779717391   0.875000000000000   1.0000000
B2   B   0.611102001390330   0.555533482849120   0.875000000000000   1.0000000
B2   B   0.444444415419794   0.055555710457469   0.875000000000000   1.0000000
B2   B   0.944424165538773   0.555545518735350   0.875000000000000   1.0000000
B2   B   0.113929728352443   0.556641310081097   0.375000000000000   1.0000000
B2   B   0.777761347995985   0.055548657241715   0.875000000000000   1.0000000
B2   B   0.276367170669693   0.055049935607491   0.375000000000000   1.0000000
B2   B   0.446279433344970   0.553828967517447   0.375000000000000   1.0000000
B2   B   0.781223573346823   0.544427643143857   0.375000000000000   1.0000000
B2   B   0.611562927271099   0.057972848300186   0.375000000000000   1.0000000
B2   B   0.444448184767496   0.555548174741162   0.875000000000000   1.0000000
B2   B   0.942808155685526   0.055094400112647   0.375000000000000   1.0000000
B2   B   0.277771015408798   0.722216352261899   0.875000000000000   1.0000000
B2   B   0.111109454653408   0.222220283369010   0.875000000000000   1.0000000
B2   B   0.444457579241463   0.222232749750613   0.875000000000000   1.0000000
B2   B   0.611100113189240   0.722203451715609   0.875000000000000   1.0000000
B2   B   0.944426076375505   0.722204631899031   0.875000000000000   1.0000000
B2   B   0.777759604663455   0.222224071035313   0.875000000000000   1.0000000
B2   B   0.113809912694798   0.723801283475073   0.375000000000000   1.0000000
B2   B   0.446066434948546   0.721783025030058   0.375000000000000   1.0000000
B2   B   0.274729186254641   0.221416226343821   0.375000000000000   1.0000000
B2   B   0.777898036991549   0.716378527043101   0.375000000000000   1.0000000
B2   B   0.611381138392678   0.225863599950130   0.375000000000000   1.0000000
B2   B   0.942992329007618   0.223226698129702   0.375000000000000   1.0000000
B2   B   0.111104677797881   0.388889090901656   0.875000000000000   1.0000000
B2   B   0.277774090649834   0.888883621439946   0.875000000000000   1.0000000
B2   B   0.611098417265453   0.888878683111596   0.875000000000000   1.0000000
B2   B   0.444464834453287   0.388897185386314   0.875000000000000   1.0000000
B2   B   0.944430102836974   0.888873778146275   0.875000000000000   1.0000000
B2   B   0.111096068980514   0.888704166291588   0.375000000000000   1.0000000
B2   B   0.777758795378037   0.388891900998006   0.875000000000000   1.0000000
B2   B   0.445887278790978   0.889950177698704   0.375000000000000   1.0000000
B2   B   0.276980465169749   0.387530719345325   0.375000000000000   1.0000000
B2   B   0.279669451853907   0.555612948584115   0.375000000000000   1.0000000
B2   B   0.777286726903493   0.887213425949142   0.375000000000000   1.0000000
B2   B   0.945271759808524   0.390948667811964   0.375000000000000   1.0000000
B2   B   0.111098778609936   0.555550785677571   0.875000000000000   1.0000000
B2   B   0.277781162199348   0.055554556747441   0.875000000000000   1.0000000
B2   B   0.777756757371531   0.555537378599570   0.875000000000000   1.0000000
B2   B   0.611098127030613   0.055553004678495   0.875000000000000   1.0000000
B2   B   0.944432463527138   0.055545849053999   0.875000000000000   1.0000000
B2   B   0.055484557318347   0.111066125888836   0.124992657407713   1.0000000
B2   B   0.555569764966913   0.610992585935423   0.125008260437272   1.0000000
B2   B   0.388888032847498   0.111137584229655   0.125065908254410   1.0000000
B2   B   0.888792299352222   0.611025377462379   0.125028248509959   1.0000000
B2   B   0.722191821247895   0.111113694735848   0.125036419266366   1.0000000
B2   B   0.055501923720590   0.777732878783280   0.624990443307884   1.0000000
B2   B   0.388888329284541   0.777756240986706   0.624998344151802   1.0000000
B2   B   0.222164164450327   0.277736813748518   0.625021747553633   1.0000000
B2   B   0.722187717631988   0.777686058276178   0.624935046431972   1.0000000
B2   B   0.555602398953984   0.277875393095474   0.625423544585382   1.0000000
B2   B   0.888838722770508   0.277778946917017   0.624971926973449   1.0000000
B2   B   0.222208154604342   0.777761399501668   0.124999268237867   1.0000000
B2   B   0.055499394313690   0.277751775201110   0.124998192113135   1.0000000
B2   B   0.388894552333023   0.277818546782071   0.124766697220178   1.0000000
B2   B   0.555550342735774   0.777720813207058   0.125021051233828   1.0000000
B2   B   0.888816053025239   0.777689045626961   0.125045546337431   1.0000000
B2   B   0.722190984772454   0.277819451445084   0.124955683823206   1.0000000
B2   B   0.055494524433201   0.944392338547241   0.624998772667154   1.0000000
B2   B   0.388888077848357   0.944448314951339   0.624992914982148   1.0000000
B2   B   0.222204124050596   0.444412776856860   0.624981539058652   1.0000000
B2   B   0.555538616588256   0.444306699515241   0.625315452073095   1.0000000
B2   B   0.722190846413995   0.944403859985809   0.624992296295178   1.0000000
B2   B   0.888809076530286   0.444419849432543   0.624999472666332   1.0000000
B2   B   0.055514249204020   0.444425375811485   0.125013819408616   1.0000000
B2   B   0.222192186782413   0.944424771640522   0.125005046391128   1.0000000
B2   B   0.555548419596970   0.944431945643716   0.125003857967112   1.0000000
B2   B   0.388921930153399   0.444359227168755   0.124791720943470   1.0000000
B2   B   0.888828101994838   0.944383597552408   0.125012656680949   1.0000000
B2   B   0.722051906294501   0.444341753767809   0.124719785756997   1.0000000
B2   B   0.222213796217614   0.611087450665081   0.625000842354756   1.0000000
B2   B   0.055484557318347   0.111066125888836   0.625007342592287   1.0000000
B2   B   0.555569764966913   0.610992585935423   0.624991739562728   1.0000000
B2   B   0.388888032847498   0.111137584229655   0.624934091745591   1.0000000
B2   B   0.888792299352222   0.611025377462379   0.624971751490041   1.0000000
B2   B   0.055519778398807   0.611083816450916   0.125012712278220   1.0000000
B2   B   0.722191821247895   0.111113694735848   0.624963580733634   1.0000000
B2   B   0.222167501428993   0.111083728047798   0.125019704359874   1.0000000
B2   B   0.388904041993222   0.611057922529518   0.125019328031233   1.0000000
B2   B   0.722142834775625   0.610960442476719   0.125044173112695   1.0000000
B2   B   0.555568738033583   0.111149418106499   0.125016047542907   1.0000000
B2   B   0.388904041993222   0.611057922529518   0.624980671968766   1.0000000
B2   B   0.888832342950015   0.111081527540675   0.125011459939218   1.0000000
B2   B   0.222208154604342   0.777761399501668   0.625000731762132   1.0000000
B2   B   0.055499394313690   0.277751775201110   0.625001807886866   1.0000000
B2   B   0.388894552333023   0.277818546782071   0.625233302779822   1.0000000
B2   B   0.555550342735774   0.777720813207058   0.624978948766172   1.0000000
B2   B   0.888816053025239   0.777689045626961   0.624954453662570   1.0000000
B2   B   0.722190984772454   0.277819451445084   0.625044316176794   1.0000000
B2   B   0.055501923720590   0.777732878783280   0.125009556692116   1.0000000
B2   B   0.388888329284541   0.777756240986706   0.125001655848199   1.0000000
B2   B   0.222164164450327   0.277736813748518   0.124978252446367   1.0000000
B2   B   0.722187717631988   0.777686058276178   0.125064953568027   1.0000000
B2   B   0.555602398953984   0.277875393095474   0.124576455414618   1.0000000
B2   B   0.888838722770508   0.277778946917017   0.125028073026551   1.0000000
B2   B   0.055514249204020   0.444425375811485   0.624986180591383   1.0000000
B2   B   0.222192186782413   0.944424771640522   0.624994953608872   1.0000000
B2   B   0.555548419596970   0.944431945643716   0.624996142032887   1.0000000
B2   B   0.388921930153399   0.444359227168755   0.625208279056530   1.0000000
B2   B   0.888828101994838   0.944383597552408   0.624987343319051   1.0000000
B2   B   0.055494524433201   0.944392338547241   0.125001227332846   1.0000000
B2   B   0.722051906294501   0.444341753767809   0.625280214243003   1.0000000
B2   B   0.388888077848357   0.944448314951339   0.125007085017853   1.0000000
B2   B   0.222204124050596   0.444412776856860   0.125018460941349   1.0000000
B2   B   0.222213796217614   0.611087450665081   0.124999157645244   1.0000000
B2   B   0.555538616588256   0.444306699515241   0.124684547926904   1.0000000
B2   B   0.722190846413995   0.944403859985809   0.125007703704822   1.0000000
B2   B   0.888809076530286   0.444419849432543   0.125000527333668   1.0000000
B2   B   0.055519778398807   0.611083816450916   0.624987287721780   1.0000000
B2   B   0.222167501428993   0.111083728047798   0.624980295640126   1.0000000
B2   B   0.722142834775625   0.610960442476719   0.624955826887305   1.0000000
B2   B   0.555568738033583   0.111149418106499   0.624983952457093   1.0000000
B2   B   0.888832342950015   0.111081527540675   0.624988540060783   1.0000000


