data_1
_audit_creation_method   'vasp2cif'
_cell_length_a    14.93631414619966
_cell_length_b    14.936314146199727
_cell_length_c    13.341276283792837
_cell_angle_alpha    90.0
_cell_angle_beta    90.0
_cell_angle_gamma    119.99999999999984

_symmetry_space_group_name_H-M    'P 1'
loop_
_atom_site_label
_atom_site_type_symbol
_atom_site_fract_x
_atom_site_fract_y
_atom_site_fract_z
_atom_site_occupancy
Sn2   Sn   0.555555555555557   0.444444444444443   0.375000000000000   1.0000000
N2   N   0.111100485383954   0.055557693252308   0.125137307696036   1.0000000
N2   N   0.611199847625141   0.555733028583538   0.117947843930031   1.0000000
N2   N   0.444458368442744   0.055582762069723   0.124910129100062   1.0000000
N2   N   0.944417237930242   0.555541631557290   0.124910129100062   1.0000000
N2   N   0.777787290085269   0.055560311709313   0.125067157753780   1.0000000
N2   N   0.111102140099911   0.722217736716606   0.624858115812231   1.0000000
N2   N   0.444458368442744   0.722208939706342   0.625089870899957   1.0000000
N2   N   0.277747522583754   0.222223148259200   0.626464051981761   1.0000000
N2   N   0.777776851740765   0.722252477416218   0.626464051981754   1.0000000
N2   N   0.611142292342081   0.222223148259200   0.626464051981754   1.0000000
N2   N   0.944439688290681   0.222212709914702   0.624932842246201   1.0000000
N2   N   0.277782263283374   0.722217736716585   0.125141884187784   1.0000000
N2   N   0.111070110387291   0.222201721860310   0.124818441270976   1.0000000
N2   N   0.444470623392000   0.222274580117330   0.122613866407750   1.0000000
N2   N   0.611142292342081   0.722252477416225   0.123535948018225   1.0000000
N2   N   0.944417237930242   0.722208939706342   0.124910129100062   1.0000000
N2   N   0.777798278139705   0.222201721860310   0.124818441270976   1.0000000
N2   N   0.111107177214046   0.888892822785947   0.624801032579907   1.0000000
N2   N   0.444452312238552   0.888892822785947   0.624801032579907   1.0000000
N2   N   0.277747522583747   0.388857707657886   0.626464051981754   1.0000000
N2   N   0.611199847625134   0.388800152374895   0.632052156069933   1.0000000
N2   N   0.777798278139705   0.888929889612680   0.625181558728987   1.0000000
N2   N   0.944442306747686   0.388876125464953   0.624862692303983   1.0000000
N2   N   0.111100485383954   0.388876125464953   0.125137307696036   1.0000000
N2   N   0.277782263283374   0.888897859900085   0.125141884187784   1.0000000
N2   N   0.611123874534983   0.888899514616061   0.125137307696036   1.0000000
N2   N   0.444266971416482   0.388800152374895   0.117947843930031   1.0000000
N2   N   0.944442306747686   0.888899514616061   0.125137307696036   1.0000000
N2   N   0.777776851740765   0.388857707657886   0.123535948018225   1.0000000
N2   N   0.277791060293641   0.555541631557290   0.625089870899957   1.0000000
N2   N   0.111100485383954   0.055557693252308   0.624862692303983   1.0000000
N2   N   0.611199847625141   0.555733028583538   0.632052156069933   1.0000000
N2   N   0.444458368442744   0.055582762069723   0.625089870899957   1.0000000
N2   N   0.944417237930242   0.555541631557290   0.625089870899957   1.0000000
N2   N   0.111107177214046   0.555547687761414   0.125198967420066   1.0000000
N2   N   0.777787290085262   0.055560311709313   0.624932842246201   1.0000000
N2   N   0.277791060293648   0.055582762069723   0.124910129100062   1.0000000
N2   N   0.444470623392000   0.555529376608018   0.122613866407743   1.0000000
N2   N   0.777725419882665   0.555529376608011   0.122613866407743   1.0000000
N2   N   0.611123874534983   0.055557693252308   0.125137307696036   1.0000000
N2   N   0.444470623391993   0.555529376608025   0.627386133592263   1.0000000
N2   N   0.944439688290681   0.055560311709313   0.125067157753780   1.0000000
N2   N   0.277782263283374   0.722217736716606   0.624858115812231   1.0000000
N2   N   0.111070110387291   0.222201721860310   0.625181558728987   1.0000000
N2   N   0.444470623391993   0.222274580117323   0.627386133592256   1.0000000
N2   N   0.611142292342081   0.722252477416218   0.626464051981754   1.0000000
N2   N   0.944417237930242   0.722208939706342   0.625089870899957   1.0000000
N2   N   0.777798278139705   0.222201721860310   0.625181558728987   1.0000000
N2   N   0.111102140099911   0.722217736716606   0.125141884187784   1.0000000
N2   N   0.444458368442744   0.722208939706342   0.124910129100062   1.0000000
N2   N   0.277747522583754   0.222223148259200   0.123535948018225   1.0000000
N2   N   0.777776851740765   0.722252477416225   0.123535948018225   1.0000000
N2   N   0.611142292342081   0.222223148259200   0.123535948018225   1.0000000
N2   N   0.944439688290674   0.222212709914702   0.125067157753780   1.0000000
N2   N   0.111100485383954   0.388876125464953   0.624862692303983   1.0000000
N2   N   0.277782263283374   0.888897859900085   0.624858115812231   1.0000000
N2   N   0.611123874534975   0.888899514616054   0.624862692303983   1.0000000
N2   N   0.444266971416482   0.388800152374895   0.632052156069926   1.0000000
N2   N   0.944442306747686   0.888899514616061   0.624862692303983   1.0000000
N2   N   0.111107177214046   0.888892822785947   0.125198967420066   1.0000000
N2   N   0.777776851740765   0.388857707657886   0.626464051981754   1.0000000
N2   N   0.444452312238552   0.888892822785947   0.125198967420066   1.0000000
N2   N   0.277747522583754   0.388857707657886   0.123535948018225   1.0000000
N2   N   0.277791060293648   0.555541631557290   0.124910129100062   1.0000000
N2   N   0.611199847625134   0.388800152374895   0.117947843930031   1.0000000
N2   N   0.777798278139705   0.888929889612680   0.124818441270976   1.0000000
N2   N   0.944442306747686   0.388876125464953   0.125137307696036   1.0000000
N2   N   0.111107177214046   0.555547687761414   0.624801032579907   1.0000000
N2   N   0.277791060293641   0.055582762069723   0.625089870899957   1.0000000
N2   N   0.777725419882665   0.555529376608025   0.627386133592256   1.0000000
N2   N   0.611123874534983   0.055557693252308   0.624862692303983   1.0000000
N2   N   0.944439688290674   0.055560311709313   0.624932842246201   1.0000000
N2   N   0.054147146684883   0.110185410742593   0.375000000000000   1.0000000
N2   N   0.554816523391320   0.623151007833818   0.375000000000000   1.0000000
N2   N   0.386926831403359   0.107186996140094   0.375000000000000   1.0000000
N2   N   0.892813003859918   0.613073168596614   0.375000000000000   1.0000000
N2   N   0.722704930724351   0.110185410742586   0.375000000000000   1.0000000
N2   N   0.055566689507577   0.777783799629643   0.875000000000000   1.0000000
N2   N   0.388883776788738   0.777783799629643   0.875000000000000   1.0000000
N2   N   0.222214881852095   0.277774107592714   0.875000000000000   1.0000000
N2   N   0.722225892407277   0.777785118147907   0.875000000000000   1.0000000
N2   N   0.555539921406249   0.277747342123684   0.875000000000000   1.0000000
N2   N   0.888892752607181   0.277779517011095   0.875000000000000   1.0000000
N2   N   0.222222222222221   0.777777777777779   0.375000000000000   1.0000000
N2   N   0.054147146684883   0.277295069275647   0.375000000000000   1.0000000
N2   N   0.376848992166134   0.264998848890812   0.375000000000000   1.0000000
N2   N   0.554854658277448   0.782707941655383   0.375000000000000   1.0000000
N2   N   0.894519950044663   0.782707941655354   0.375000000000000   1.0000000
N2   N   0.724453470758495   0.275546529241491   0.375000000000000   1.0000000
N2   N   0.055556937752079   0.944443062247913   0.875000000000000   1.0000000
N2   N   0.388883776788738   0.944433310492417   0.875000000000000   1.0000000
N2   N   0.222212869021084   0.444451496825266   0.875000000000000   1.0000000
N2   N   0.555555555555557   0.444444444444443   0.875000000000000   1.0000000
N2   N   0.722220482988938   0.944446568929537   0.875000000000000   1.0000000
N2   N   0.888905294470830   0.444451496825266   0.875000000000000   1.0000000
N2   N   0.055828844745992   0.444991022825342   0.375000000000000   1.0000000
N2   N   0.221624187946476   0.942922111444238   0.375000000000000   1.0000000
N2   N   0.555008977174687   0.944171155254059   0.375000000000000   1.0000000
N2   N   0.376848992166134   0.445183476608664   0.375000000000000   1.0000000
N2   N   0.889814589257390   0.945852853315074   0.375000000000000   1.0000000
N2   N   0.735001151109182   0.445183476608671   0.375000000000000   1.0000000
N2   N   0.222216200370334   0.611116223211225   0.875000000000000   1.0000000
N2   N   0.055553431070535   0.111107247392804   0.875000000000000   1.0000000
N2   N   0.555539921406249   0.611125912615830   0.875000000000000   1.0000000
N2   N   0.388873995877004   0.111081325087379   0.875000000000000   1.0000000
N2   N   0.888918674912655   0.611126004123034   0.875000000000000   1.0000000
N2   N   0.057077888555755   0.612035409835590   0.375000000000000   1.0000000
N2   N   0.722220482988945   0.111107247392804   0.875000000000000   1.0000000
N2   N   0.217292058344602   0.105480049955378   0.375000000000000   1.0000000
N2   N   0.386926831403373   0.613073168596607   0.375000000000000   1.0000000
N2   N   0.735001151109189   0.623151007833811   0.375000000000000   1.0000000
N2   N   0.554854658277456   0.105480049955378   0.375000000000000   1.0000000
N2   N   0.388873995877004   0.611126004123034   0.875000000000000   1.0000000
N2   N   0.888888888888886   0.111111111111114   0.375000000000000   1.0000000
N2   N   0.222222222222221   0.777777777777779   0.875000000000000   1.0000000
N2   N   0.055553431070535   0.277779517011095   0.875000000000000   1.0000000
N2   N   0.388874087384176   0.277747342123691   0.875000000000000   1.0000000
N2   N   0.555548503174748   0.777787130978896   0.875000000000000   1.0000000
N2   N   0.888905294470830   0.777787130978889   0.875000000000000   1.0000000
N2   N   0.722225892407277   0.277774107592707   0.875000000000000   1.0000000
N2   N   0.057077888555755   0.778375812053517   0.375000000000000   1.0000000
N2   N   0.387964590164463   0.778375812053503   0.375000000000000   1.0000000
N2   N   0.217759725149622   0.275546529241484   0.375000000000000   1.0000000
N2   N   0.724453470758509   0.782240274850367   0.375000000000000   1.0000000
N2   N   0.554816523391306   0.264998848890812   0.375000000000000   1.0000000
N2   N   0.889814589257383   0.277295069275647   0.375000000000000   1.0000000
N2   N   0.055556937752079   0.444447208837481   0.875000000000000   1.0000000
N2   N   0.222216200370334   0.944433310492417   0.875000000000000   1.0000000
N2   N   0.555552791162484   0.944443062247920   0.875000000000000   1.0000000
N2   N   0.388874087384169   0.444460078593808   0.875000000000000   1.0000000
N2   N   0.888892752607217   0.944446568929529   0.875000000000000   1.0000000
N2   N   0.055828844745992   0.944171155254052   0.375000000000000   1.0000000
N2   N   0.722252657876291   0.444460078593808   0.875000000000000   1.0000000
N2   N   0.387964590164463   0.942922111444245   0.375000000000000   1.0000000
N2   N   0.217292058344602   0.445145341722561   0.375000000000000   1.0000000
N2   N   0.221624187946476   0.612035409835590   0.375000000000000   1.0000000
N2   N   0.722704930724358   0.945852853315081   0.375000000000000   1.0000000
N2   N   0.894519950044663   0.445145341722561   0.375000000000000   1.0000000
N2   N   0.055566689507577   0.611116223211211   0.875000000000000   1.0000000
N2   N   0.222212869021091   0.111094705529168   0.875000000000000   1.0000000
N2   N   0.722252657876298   0.611125912615837   0.875000000000000   1.0000000
N2   N   0.555548503174748   0.111094705529168   0.875000000000000   1.0000000
N2   N   0.888888888888886   0.111111111111114   0.875000000000000   1.0000000
B2   B   0.108244251202311   0.053334007426592   0.375000000000000   1.0000000
B2   B   0.628902985050380   0.591139303434022   0.375000000000000   1.0000000
B2   B   0.443674849239072   0.052856467778323   0.375000000000000   1.0000000
B2   B   0.947143532221654   0.556325150760942   0.375000000000000   1.0000000
B2   B   0.778442530940925   0.055887932137138   0.375000000000000   1.0000000
B2   B   0.111110051355430   0.722221692344364   0.875000000000000   1.0000000
B2   B   0.444440091712931   0.722215841621658   0.875000000000000   1.0000000
B2   B   0.277804969212379   0.222234229571674   0.875000000000000   1.0000000
B2   B   0.777765770428325   0.722195030787613   0.875000000000000   1.0000000
B2   B   0.611095927025946   0.222234229571674   0.875000000000000   1.0000000
B2   B   0.944446924718433   0.222227182770075   0.875000000000000   1.0000000
B2   B   0.277360948790491   0.722639051209503   0.375000000000000   1.0000000
B2   B   0.108098313662528   0.220715823497950   0.375000000000000   1.0000000
B2   B   0.441848247149154   0.217029827631610   0.375000000000000   1.0000000
B2   B   0.612330141888000   0.731680475053658   0.375000000000000   1.0000000
B2   B   0.947143532221697   0.724151714794040   0.375000000000000   1.0000000
B2   B   0.779284176502094   0.220715823497950   0.375000000000000   1.0000000
B2   B   0.111111828349158   0.888888171650828   0.875000000000000   1.0000000
B2   B   0.444443009968369   0.888888171650828   0.875000000000000   1.0000000
B2   B   0.277804969212379   0.388904072974021   0.875000000000000   1.0000000
B2   B   0.611091269615168   0.388908730384874   0.875000000000000   1.0000000
B2   B   0.777768781147371   0.888870895628157   0.875000000000000   1.0000000
B2   B   0.944441974633744   0.388895751948063   0.875000000000000   1.0000000
B2   B   0.108244251202311   0.388243577109047   0.375000000000000   1.0000000
B2   B   0.277360948790491   0.888055230914303   0.375000000000000   1.0000000
B2   B   0.611756422890988   0.891755748797698   0.375000000000000   1.0000000
B2   B   0.408860696565944   0.371097014949660   0.375000000000000   1.0000000
B2   B   0.946665992573385   0.891755748797698   0.375000000000000   1.0000000
B2   B   0.786016999832274   0.387669858111943   0.375000000000000   1.0000000
B2   B   0.277784158378377   0.555559908287106   0.875000000000000   1.0000000
B2   B   0.111120443981024   0.055558025366283   0.875000000000000   1.0000000
B2   B   0.611091269615168   0.555515872563573   0.875000000000000   1.0000000
B2   B   0.444440091712931   0.055557583424630   0.875000000000000   1.0000000
B2   B   0.944442416575371   0.555559908287106   0.875000000000000   1.0000000
B2   B   0.111308179273241   0.555949691879855   0.375000000000000   1.0000000
B2   B   0.777772817229932   0.055553075281623   0.875000000000000   1.0000000
B2   B   0.275848285205901   0.052856467778323   0.375000000000000   1.0000000
B2   B   0.441848247149154   0.558151752850868   0.375000000000000   1.0000000
B2   B   0.782970172368363   0.558151752850868   0.375000000000000   1.0000000
B2   B   0.611756422890996   0.053334007426592   0.375000000000000   1.0000000
B2   B   0.444449121967945   0.555550878032064   0.875000000000000   1.0000000
B2   B   0.944112067862876   0.055887932137138   0.375000000000000   1.0000000
B2   B   0.277778307655613   0.722221692344364   0.875000000000000   1.0000000
B2   B   0.111129104371881   0.222231218852601   0.875000000000000   1.0000000
B2   B   0.444449121967945   0.222231577269205   0.875000000000000   1.0000000
B2   B   0.611095927025946   0.722195030787613   0.875000000000000   1.0000000
B2   B   0.944442416575400   0.722215841621658   0.875000000000000   1.0000000
B2   B   0.777768781147378   0.222231218852601   0.875000000000000   1.0000000
B2   B   0.111944769085726   0.722639051209503   0.375000000000000   1.0000000
B2   B   0.443674849239072   0.724151714794040   0.375000000000000   1.0000000
B2   B   0.268319524946382   0.213983000167731   0.375000000000000   1.0000000
B2   B   0.786016999832274   0.731680475053651   0.375000000000000   1.0000000
B2   B   0.612330141888014   0.213983000167724   0.375000000000000   1.0000000
B2   B   0.944112067862876   0.221557469059052   0.375000000000000   1.0000000
B2   B   0.111120443981024   0.388895751948063   0.875000000000000   1.0000000
B2   B   0.277778307655613   0.888889948644555   0.875000000000000   1.0000000
B2   B   0.611104248051916   0.888879556018985   0.875000000000000   1.0000000
B2   B   0.444484127436411   0.388908730384874   0.875000000000000   1.0000000
B2   B   0.944441974633737   0.888879556018985   0.875000000000000   1.0000000
B2   B   0.111308179273241   0.888691820726752   0.375000000000000   1.0000000
B2   B   0.777765770428311   0.388904072974021   0.875000000000000   1.0000000
B2   B   0.444050308120182   0.888691820726752   0.375000000000000   1.0000000
B2   B   0.268319524946367   0.387669858111943   0.375000000000000   1.0000000
B2   B   0.275848285205901   0.556325150760942   0.375000000000000   1.0000000
B2   B   0.628902985050366   0.371097014949646   0.375000000000000   1.0000000
B2   B   0.779284176502087   0.891901686337508   0.375000000000000   1.0000000
B2   B   0.946665992573385   0.388243577109047   0.375000000000000   1.0000000
B2   B   0.111111828349158   0.555556990031646   0.875000000000000   1.0000000
B2   B   0.277784158378377   0.055557583424630   0.875000000000000   1.0000000
B2   B   0.777768422730774   0.555550878032064   0.875000000000000   1.0000000
B2   B   0.611104248051909   0.055558025366283   0.875000000000000   1.0000000
B2   B   0.944446924718433   0.055553075281623   0.875000000000000   1.0000000
B2   B   0.055539568593373   0.111112999176911   0.124992088896884   1.0000000
B2   B   0.555641173844690   0.611066327558274   0.121238602402011   1.0000000
B2   B   0.388947738515562   0.111228810364462   0.124271868945829   1.0000000
B2   B   0.888771189635548   0.611052261484487   0.124271868945829   1.0000000
B2   B   0.722240097250178   0.111112999176911   0.124992088896884   1.0000000
B2   B   0.055520868644468   0.777767570230938   0.624923361443261   1.0000000
B2   B   0.388913368253113   0.777767570230938   0.624923361443261   1.0000000
B2   B   0.222203805377240   0.277768569355269   0.626122911660230   1.0000000
B2   B   0.722231430644681   0.777796194622733   0.626122911660230   1.0000000
B2   B   0.555641173844690   0.277908179619718   0.628761397598026   1.0000000
B2   B   0.888887000823060   0.277759902749806   0.625007911103089   1.0000000
B2   B   0.222222222222221   0.777777777777779   0.125077439610657   1.0000000
B2   B   0.055539568593373   0.277759902749806   0.124992088896884   1.0000000
B2   B   0.388933672441742   0.277908179619725   0.121238602402011   1.0000000
B2   B   0.555589701074028   0.777767938774008   0.124572786833143   1.0000000
B2   B   0.888844904366658   0.777767938774008   0.124572786833143   1.0000000
B2   B   0.722231430644681   0.277768569355269   0.123877088339742   1.0000000
B2   B   0.055543778551849   0.944456221448136   0.624833062255757   1.0000000
B2   B   0.388913368253113   0.944479131355489   0.624923361443261   1.0000000
B2   B   0.222232061225937   0.444410298925929   0.625427213166898   1.0000000
B2   B   0.555555555555557   0.444444444444443   0.630391351318552   1.0000000
B2   B   0.722240097250178   0.944460431406680   0.625007911103089   1.0000000
B2   B   0.888844904366658   0.444410298925922   0.625427213166898   1.0000000
B2   B   0.055543778551849   0.444420890437012   0.125166937744251   1.0000000
B2   B   0.222232429769062   0.944479131355489   0.125076638556756   1.0000000
B2   B   0.555579109562923   0.944456221448136   0.125166937744251   1.0000000
B2   B   0.388933672441735   0.444358826155329   0.121238602402011   1.0000000
B2   B   0.888887000823060   0.944460431406680   0.124992088896884   1.0000000
B2   B   0.722091820380298   0.444358826155329   0.121238602402011   1.0000000
B2   B   0.222232429769055   0.611086631746851   0.624923361443261   1.0000000
B2   B   0.055539568593373   0.111112999176911   0.625007911103089   1.0000000
B2   B   0.555641173844690   0.611066327558281   0.628761397598026   1.0000000
B2   B   0.388947738515562   0.111228810364462   0.625728131054189   1.0000000
B2   B   0.888771189635548   0.611052261484487   0.625728131054189   1.0000000
B2   B   0.055520868644468   0.611086631746865   0.125076638556756   1.0000000
B2   B   0.722240097250178   0.111112999176911   0.625007911103089   1.0000000
B2   B   0.222232061225944   0.111155095633351   0.124572786833143   1.0000000
B2   B   0.388947738515555   0.611052261484487   0.124271868945829   1.0000000
B2   B   0.722091820380298   0.611066327558274   0.121238602402011   1.0000000
B2   B   0.555589701074021   0.111155095633351   0.124572786833143   1.0000000
B2   B   0.388947738515562   0.611052261484487   0.625728131054189   1.0000000
B2   B   0.888888888888886   0.111111111111114   0.125024845440356   1.0000000
B2   B   0.222222222222221   0.777777777777779   0.624922560389360   1.0000000
B2   B   0.055539568593373   0.277759902749806   0.625007911103089   1.0000000
B2   B   0.388933672441742   0.277908179619725   0.628761397598026   1.0000000
B2   B   0.555589701074028   0.777767938774008   0.625427213166898   1.0000000
B2   B   0.888844904366665   0.777767938774008   0.625427213166898   1.0000000
B2   B   0.722231430644681   0.277768569355269   0.626122911660230   1.0000000
B2   B   0.055520868644468   0.777767570230938   0.125076638556756   1.0000000
B2   B   0.388913368253113   0.777767570230938   0.125076638556756   1.0000000
B2   B   0.222203805377233   0.277768569355269   0.123877088339742   1.0000000
B2   B   0.722231430644681   0.777796194622776   0.123877088339742   1.0000000
B2   B   0.555641173844697   0.277908179619725   0.121238602402011   1.0000000
B2   B   0.888887000823060   0.277759902749806   0.124992088896884   1.0000000
B2   B   0.055543778551849   0.444420890437012   0.624833062255757   1.0000000
B2   B   0.222232429769062   0.944479131355489   0.624923361443261   1.0000000
B2   B   0.555579109562938   0.944456221448136   0.624833062255757   1.0000000
B2   B   0.388933672441742   0.444358826155329   0.628761397598026   1.0000000
B2   B   0.888887000823060   0.944460431406680   0.625007911103089   1.0000000
B2   B   0.055543778551849   0.944456221448136   0.125166937744251   1.0000000
B2   B   0.722091820380291   0.444358826155329   0.628761397598026   1.0000000
B2   B   0.388913368253113   0.944479131355489   0.125076638556756   1.0000000
B2   B   0.222232061225937   0.444410298925929   0.124572786833143   1.0000000
B2   B   0.222232429769062   0.611086631746851   0.125076638556756   1.0000000
B2   B   0.555555555555557   0.444444444444443   0.119608648681476   1.0000000
B2   B   0.722240097250178   0.944460431406680   0.124992088896884   1.0000000
B2   B   0.888844904366658   0.444410298925922   0.124572786833143   1.0000000
B2   B   0.055520868644468   0.611086631746851   0.624923361443261   1.0000000
B2   B   0.222232061225944   0.111155095633351   0.625427213166898   1.0000000
B2   B   0.722091820380291   0.611066327558274   0.628761397598026   1.0000000
B2   B   0.555589701074021   0.111155095633351   0.625427213166898   1.0000000
B2   B   0.888888888888886   0.111111111111114   0.624975154559642   1.0000000


