data_1
_audit_creation_method   'vasp2cif'
_cell_length_a    17.52789999999977
_cell_length_b    17.52789999999977
_cell_length_c    15.0
_cell_angle_alpha    90.0
_cell_angle_beta    90.0
_cell_angle_gamma    119.99999999999916

_symmetry_space_group_name_H-M    'P 1'
loop_
_atom_site_label
_atom_site_type_symbol
_atom_site_fract_x
_atom_site_fract_y
_atom_site_fract_z
_atom_site_occupancy
B2   B   0.904878123000156   0.952539157744810   0.111029038507010   1.0000000
B2   B   0.904683511385551   0.095606442426875   0.111064118803229   1.0000000
B2   B   0.904819872693186   0.238165772314366   0.111077845721800   1.0000000
B2   B   0.904769882861545   0.380875850259305   0.111005200062116   1.0000000
B2   B   0.904864986813284   0.523381599893124   0.111030918602236   1.0000000
B2   B   0.904846704333037   0.666592441446109   0.111148881512407   1.0000000
B2   B   0.905203429417033   0.809829483743152   0.111110435952120   1.0000000
B2   B   0.047286158300436   0.952494596471007   0.110982284484177   1.0000000
B2   B   0.047579950149444   0.095176937512450   0.111015565990140   1.0000000
B2   B   0.047334395126664   0.237934706105699   0.111020952740960   1.0000000
B2   B   0.047314304367692   0.380916033967725   0.111033770833981   1.0000000
B2   B   0.047319817874093   0.523653217312775   0.110985618172422   1.0000000
B2   B   0.047631028127992   0.666649083480579   0.110975640838482   1.0000000
B2   B   0.047381179130645   0.808987256092206   0.110963307524933   1.0000000
B2   B   0.190708239953218   0.952291326860592   0.110935269440004   1.0000000
B2   B   0.190026115821805   0.094510433567712   0.111066286074432   1.0000000
B2   B   0.189512834084993   0.237235622779893   0.111019374473395   1.0000000
B2   B   0.189854024854135   0.380656902631497   0.111003278314752   1.0000000
B2   B   0.189610913939951   0.524038411897314   0.111086702418232   1.0000000
B2   B   0.190022901448797   0.666648559300290   0.111073219710130   1.0000000
B2   B   0.190227094635848   0.809501422704791   0.110932492900652   1.0000000
B2   B   0.333128344813731   0.952142044592046   0.110982382366003   1.0000000
B2   B   0.333155728075052   0.094763511948856   0.111083418454491   1.0000000
B2   B   0.333066108198610   0.236836719066423   0.111147248233115   1.0000000
B2   B   0.332025750245767   0.377972662562405   0.110923336371534   1.0000000
B2   B   0.331999226024110   0.525480296957603   0.110969875378032   1.0000000
B2   B   0.332698259238309   0.667416758763054   0.111200389000392   1.0000000
B2   B   0.333241612673364   0.809946716302305   0.111085894327199   1.0000000
B2   B   0.476289159262381   0.952816592055285   0.111025862964542   1.0000000
B2   B   0.476494427796732   0.094996229421842   0.111034012532588   1.0000000
B2   B   0.476133694284207   0.236797149200398   0.111118557576105   1.0000000
B2   B   0.474817932862974   0.377715386803208   0.110930587881597   1.0000000
B2   B   0.474695852124281   0.668647576969607   0.110958715474308   1.0000000
B2   B   0.475997870138114   0.810795743002177   0.111122016052154   1.0000000
B2   B   0.619225663036432   0.953070841600115   0.111067920470080   1.0000000
B2   B   0.619201882027934   0.095411967546900   0.111016399218084   1.0000000
B2   B   0.619327698390036   0.237768310919468   0.111076713757609   1.0000000
B2   B   0.619549622954312   0.380229014654735   0.111096247411074   1.0000000
B2   B   0.621771898895737   0.524982818381670   0.110922678828923   1.0000000
B2   B   0.621977198807592   0.668299473277577   0.110880240490784   1.0000000
B2   B   0.619487016674408   0.810644726843811   0.111034208093779   1.0000000
B2   B   0.762277681261086   0.953053481533138   0.111059202284748   1.0000000
B2   B   0.762085922295805   0.095506636541655   0.111067876461713   1.0000000
B2   B   0.762060172155402   0.238107578098049   0.111067756029743   1.0000000
B2   B   0.762184454766010   0.380637651917710   0.111079207862495   1.0000000
B2   B   0.762838198057605   0.523683524289836   0.111170419364784   1.0000000
B2   B   0.762737913915796   0.666767447280157   0.111178550149045   1.0000000
B2   B   0.762742076529275   0.810700698228007   0.111045368391075   1.0000000
N2   N   0.952508645534243   0.904872095292097   0.111017026614401   1.0000000
N2   N   0.952479804016472   0.047673262775361   0.111012339195299   1.0000000
N2   N   0.952319816291458   0.190517920527374   0.111054076439385   1.0000000
N2   N   0.952362835030019   0.333366646570143   0.111024089739636   1.0000000
N2   N   0.952370451787889   0.476095511935025   0.110947682928450   1.0000000
N2   N   0.952536759096473   0.619133305776329   0.111034468742303   1.0000000
N2   N   0.952524910508004   0.761861906505747   0.111085010393261   1.0000000
N2   N   0.095110062329022   0.904609068352124   0.110908053984398   1.0000000
N2   N   0.095017441011695   0.047307877716346   0.111000011122251   1.0000000
N2   N   0.094748275855211   0.190037228828260   0.110992942732735   1.0000000
N2   N   0.094801530980619   0.333053962883354   0.111002161832442   1.0000000
N2   N   0.094713947053891   0.476225910712273   0.111018467547999   1.0000000
N2   N   0.095007744170681   0.619072860274759   0.110977332711077   1.0000000
N2   N   0.095136197999339   0.761857418428641   0.110903821524652   1.0000000
N2   N   0.237902953642651   0.904606412727660   0.110903459756250   1.0000000
N2   N   0.237916760758217   0.047138298708199   0.111018535498947   1.0000000
N2   N   0.237541474484431   0.189518593752334   0.111082153099895   1.0000000
N2   N   0.236491815951046   0.331903324519073   0.110974139809737   1.0000000
N2   N   0.236444812471435   0.476015023797422   0.111040355472165   1.0000000
N2   N   0.237566431286665   0.619384429556041   0.111130976733386   1.0000000
N2   N   0.237736161419083   0.762149997957240   0.111024806787022   1.0000000
N2   N   0.380835207231131   0.904961694951858   0.110998924506556   1.0000000
N2   N   0.380699021686779   0.047206393877292   0.111010971267785   1.0000000
N2   N   0.380784215271641   0.189539605823182   0.111122068661114   1.0000000
N2   N   0.380249818204495   0.331538977415476   0.111083536622485   1.0000000
N2   N   0.367953431012526   0.469642602563625   0.110430699783175   1.0000000
N2   N   0.380183315864949   0.620063127163470   0.111137667408187   1.0000000
N2   N   0.380644996638334   0.762579477587793   0.111152248477978   1.0000000
N2   N   0.523860315891541   0.905647477837549   0.111066628356123   1.0000000
N2   N   0.523915481814848   0.047714470090942   0.110984836513997   1.0000000
N2   N   0.523949041895249   0.189748914858840   0.111077260622691   1.0000000
N2   N   0.524108293535801   0.331466952792621   0.111061744060908   1.0000000
N2   N   0.530265157572296   0.469273283020407   0.110388521604920   1.0000000
N2   N   0.530420286733022   0.632636495051754   0.110413139686885   1.0000000
N2   N   0.524135033313526   0.764148292277305   0.111048949062363   1.0000000
N2   N   0.667146300869765   0.905666371304775   0.111059248214296   1.0000000
N2   N   0.666832016600976   0.047971280626390   0.111019501254403   1.0000000
N2   N   0.666851021206084   0.190409406196710   0.111035581002289   1.0000000
N2   N   0.667049650654224   0.332867765652240   0.111081965189296   1.0000000
N2   N   0.668104111071384   0.475684381069034   0.111087483882863   1.0000000
N2   N   0.667998513630512   0.619641248594578   0.111035201391712   1.0000000
N2   N   0.668101578735818   0.763865780392566   0.110978287876413   1.0000000
N2   N   0.810038922362939   0.905497321223797   0.111028117298951   1.0000000
N2   N   0.809755691579939   0.048042226375451   0.111057366859374   1.0000000
N2   N   0.809712845077229   0.190569813268465   0.111062016018408   1.0000000
N2   N   0.809713241710030   0.333251744163124   0.111033101682793   1.0000000
N2   N   0.810054575592129   0.475967380269085   0.111092134419627   1.0000000
N2   N   0.810027936597276   0.619016913735669   0.111208771832032   1.0000000
N2   N   0.810176966053486   0.762375784428824   0.111122671593988   1.0000000


