data_1
_audit_creation_method   'vasp2cif'
_cell_length_a    14.93631414619966
_cell_length_b    14.936314146199727
_cell_length_c    13.341276283792837
_cell_angle_alpha    90.0
_cell_angle_beta    90.0
_cell_angle_gamma    119.99999999999984

_symmetry_space_group_name_H-M    'P 1'
loop_
_atom_site_label
_atom_site_type_symbol
_atom_site_fract_x
_atom_site_fract_y
_atom_site_fract_z
_atom_site_occupancy
Al2   Al   0.444444444444443   0.388888888888886   0.375000000000000   1.0000000
N2   N   0.111099058394492   0.055544579263578   0.124367322979508   1.0000000
N2   N   0.611126460316182   0.555575177371019   0.124559931973017   1.0000000
N2   N   0.444445520869086   0.055544579263578   0.124367322979508   1.0000000
N2   N   0.944449409965561   0.555556440636444   0.124572595479791   1.0000000
N2   N   0.777777777777779   0.055555555555557   0.124533856146284   1.0000000
N2   N   0.111111111111114   0.722222222222221   0.625403291325077   1.0000000
N2   N   0.444445520869086   0.722234274938843   0.625632677020492   1.0000000
N2   N   0.277758155962316   0.222206873017153   0.625440068026984   1.0000000
N2   N   0.777788754069758   0.722234274938843   0.625632677020492   1.0000000
N2   N   0.611113889508224   0.222219443825111   0.625674182585407   1.0000000
N2   N   0.944444220626287   0.222223145321087   0.625494606993527   1.0000000
N2   N   0.277776892696893   0.722226302662454   0.124572595479791   1.0000000
N2   N   0.111105554316894   0.222219443825111   0.124325817414595   1.0000000
N2   N   0.444448717054837   0.222206873017153   0.124559931973017   1.0000000
N2   N   0.611113889508224   0.722227779016442   0.124325817414595   1.0000000
N2   N   0.944449409965561   0.722226302662454   0.124572595479791   1.0000000
N2   N   0.777778924694798   0.222223145321087   0.124505393006473   1.0000000
N2   N   0.111107030670882   0.888883923367767   0.625427404520210   1.0000000
N2   N   0.444446301245225   0.888889817289275   0.625462747623457   1.0000000
N2   N   0.277758155962316   0.388884616278491   0.625440068026984   1.0000000
N2   N   0.611126460316182   0.388884616278491   0.625440068026984   1.0000000
N2   N   0.777778924694798   0.888889112707042   0.625494606993527   1.0000000
N2   N   0.944443516044054   0.388887032088103   0.625462747623457   1.0000000
N2   N   0.111099058394492   0.388887812464243   0.124367322979508   1.0000000
N2   N   0.277776892696893   0.888883923367767   0.124572595479791   1.0000000
N2   N   0.611110188012247   0.888889112707042   0.124505393006473   1.0000000
N2   N   0.444444444444443   0.388888888888886   0.129061038450686   1.0000000
N2   N   0.944443516044054   0.888889817289275   0.124537252376542   1.0000000
N2   N   0.777788754069758   0.388887812464243   0.124367322979508   1.0000000
N2   N   0.277772598475987   0.555560734857349   0.625569961999706   1.0000000
N2   N   0.111099058394492   0.055544579263578   0.625632677020492   1.0000000
N2   N   0.611126460316182   0.555575177371019   0.625440068026984   1.0000000
N2   N   0.444445520869086   0.055544579263578   0.625632677020492   1.0000000
N2   N   0.944449409965561   0.555556440636444   0.625427404520210   1.0000000
N2   N   0.111107030670882   0.555556440636444   0.124572595479791   1.0000000
N2   N   0.777777777777779   0.055555555555557   0.625466143853717   1.0000000
N2   N   0.277772598475987   0.055545196951974   0.124430038000294   1.0000000
N2   N   0.444448717054837   0.555575177371019   0.124559931973017   1.0000000
N2   N   0.777788136381362   0.555560734857349   0.124430038000294   1.0000000
N2   N   0.611110188012247   0.055554408638537   0.124505393006473   1.0000000
N2   N   0.444448717054837   0.555575177371019   0.625440068026984   1.0000000
N2   N   0.944444220626287   0.055554408638537   0.124505393006473   1.0000000
N2   N   0.277776892696893   0.722226302662454   0.625427404520210   1.0000000
N2   N   0.111105554316894   0.222219443825111   0.625674182585407   1.0000000
N2   N   0.444448717054837   0.222206873017153   0.625440068026984   1.0000000
N2   N   0.611113889508224   0.722227779016442   0.625674182585407   1.0000000
N2   N   0.944449409965561   0.722226302662454   0.625427404520210   1.0000000
N2   N   0.777778924694798   0.222223145321087   0.625494606993527   1.0000000
N2   N   0.111111111111114   0.722222222222221   0.124596708674923   1.0000000
N2   N   0.444445520869086   0.722234274938843   0.124367322979508   1.0000000
N2   N   0.277758155962316   0.222206873017153   0.124559931973017   1.0000000
N2   N   0.777788754069758   0.722234274938843   0.124367322979508   1.0000000
N2   N   0.611113889508224   0.222219443825111   0.124325817414595   1.0000000
N2   N   0.944444220626287   0.222223145321087   0.124505393006473   1.0000000
N2   N   0.111099058394492   0.388887812464243   0.625632677020492   1.0000000
N2   N   0.277776892696893   0.888883923367767   0.625427404520210   1.0000000
N2   N   0.611110188012247   0.888889112707042   0.625494606993527   1.0000000
N2   N   0.444444444444443   0.388888888888886   0.620938961549315   1.0000000
N2   N   0.944443516044054   0.888889817289275   0.625462747623457   1.0000000
N2   N   0.111107030670882   0.888883923367767   0.124572595479791   1.0000000
N2   N   0.777788754069758   0.388887812464243   0.625632677020492   1.0000000
N2   N   0.444446301245225   0.888889817289275   0.124537252376542   1.0000000
N2   N   0.277758155962316   0.388884616278491   0.124559931973017   1.0000000
N2   N   0.277772598475987   0.555560734857349   0.124430038000294   1.0000000
N2   N   0.611126460316182   0.388884616278491   0.124559931973017   1.0000000
N2   N   0.777778924694798   0.888889112707042   0.124505393006473   1.0000000
N2   N   0.944443516044054   0.388887032088103   0.124537252376542   1.0000000
N2   N   0.111107030670882   0.555556440636444   0.625427404520210   1.0000000
N2   N   0.277772598475987   0.055545196951974   0.625569961999706   1.0000000
N2   N   0.777788136381362   0.555560734857349   0.625569961999706   1.0000000
N2   N   0.611110188012247   0.055554408638537   0.625494606993527   1.0000000
N2   N   0.944444220626287   0.055554408638537   0.625494606993527   1.0000000
N2   N   0.054571054458984   0.110447557070565   0.375000000000000   1.0000000
N2   N   0.556104813653720   0.612209627307439   0.375000000000000   1.0000000
N2   N   0.387884269515476   0.105495887694150   0.375000000000000   1.0000000
N2   N   0.890805063473169   0.612069198403255   0.375000000000000   1.0000000
N2   N   0.722395687375054   0.110937645958281   0.375000000000000   1.0000000
N2   N   0.055554154356301   0.777779178977035   0.875000000000000   1.0000000
N2   N   0.388891725908938   0.777780268251585   0.875000000000000   1.0000000
N2   N   0.222219570307559   0.277776451820447   0.875000000000000   1.0000000
N2   N   0.722224463638224   0.777782041712852   0.875000000000000   1.0000000
N2   N   0.555556881512889   0.277776451820447   0.875000000000000   1.0000000
N2   N   0.888888954838172   0.277777909676350   0.875000000000000   1.0000000
N2   N   0.221852824262613   0.777593078797974   0.375000000000000   1.0000000
N2   N   0.054571054458984   0.277456830721755   0.375000000000000   1.0000000
N2   N   0.379632459835436   0.259264919670877   0.375000000000000   1.0000000
N2   N   0.555876502611581   0.778762278874352   0.375000000000000   1.0000000
N2   N   0.890465440820154   0.779048028658385   0.375000000000000   1.0000000
N2   N   0.722885776262772   0.277456830721755   0.375000000000000   1.0000000
N2   N   0.055553065081751   0.944444790990689   0.875000000000000   1.0000000
N2   N   0.388891725908938   0.944444790990689   0.875000000000000   1.0000000
N2   N   0.222222813553626   0.444440419218786   0.875000000000000   1.0000000
N2   N   0.555539333583649   0.444436333458489   0.875000000000000   1.0000000
N2   N   0.722222498586647   0.944444997173295   0.875000000000000   1.0000000
N2   N   0.888888542342640   0.444441607424391   0.875000000000000   1.0000000
N2   N   0.054285304674950   0.444750745495105   0.375000000000000   1.0000000
N2   N   0.221264134930080   0.942528269860160   0.375000000000000   1.0000000
N2   N   0.555813701821844   0.944573517577585   0.375000000000000   1.0000000
N2   N   0.379632459835436   0.453700873497893   0.375000000000000   1.0000000
N2   N   0.888759815755743   0.944573517577585   0.375000000000000   1.0000000
N2   N   0.727837445639185   0.445449063817853   0.375000000000000   1.0000000
N2   N   0.222223775631070   0.611109557702265   0.875000000000000   1.0000000
N2   N   0.055551291620483   0.111108869695112   0.875000000000000   1.0000000
N2   N   0.555556881512889   0.611113763025777   0.875000000000000   1.0000000
N2   N   0.388892914114543   0.111115727668175   0.875000000000000   1.0000000
N2   N   0.888885782071190   0.611109557702265   0.875000000000000   1.0000000
N2   N   0.055740254535362   0.611480509070723   0.375000000000000   1.0000000
N2   N   0.722222498586647   0.111110834746688   0.875000000000000   1.0000000
N2   N   0.217611618178667   0.105495887694150   0.375000000000000   1.0000000
N2   N   0.387884269515476   0.615721715154668   0.375000000000000   1.0000000
N2   N   0.727837445639186   0.615721715154668   0.375000000000000   1.0000000
N2   N   0.555876502611581   0.110447557070565   0.375000000000000   1.0000000
N2   N   0.388892914114543   0.611110519779710   0.875000000000000   1.0000000
N2   N   0.888541958583219   0.110937645958281   0.375000000000000   1.0000000
N2   N   0.222225024620733   0.777779178977035   0.875000000000000   1.0000000
N2   N   0.055551291620483   0.277775755258706   0.875000000000000   1.0000000
N2   N   0.388896999874840   0.277793999749688   0.875000000000000   1.0000000
N2   N   0.555557578074629   0.777782041712852   0.875000000000000   1.0000000
N2   N   0.888888542342640   0.777780268251585   0.875000000000000   1.0000000
N2   N   0.722224463638224   0.277775755258706   0.875000000000000   1.0000000
N2   N   0.055740254535362   0.777593078797974   0.375000000000000   1.0000000
N2   N   0.388582587838223   0.779048028658385   0.375000000000000   1.0000000
N2   N   0.221123706025897   0.277228519679616   0.375000000000000   1.0000000
N2   N   0.722885776262772   0.778762278874352   0.375000000000000   1.0000000
N2   N   0.556104813653720   0.277228519679616   0.375000000000000   1.0000000
N2   N   0.888759815755743   0.277519631511492   0.375000000000000   1.0000000
N2   N   0.055553065081751   0.444441607424391   0.875000000000000   1.0000000
N2   N   0.222223775631070   0.944447551262139   0.875000000000000   1.0000000
N2   N   0.555555423656986   0.944444378495157   0.875000000000000   1.0000000
N2   N   0.388896999874840   0.444436333458489   0.875000000000000   1.0000000
N2   N   0.888888954838172   0.944444378495157   0.875000000000000   1.0000000
N2   N   0.054285304674950   0.942867892513175   0.375000000000000   1.0000000
N2   N   0.722217605665160   0.444440419218786   0.875000000000000   1.0000000
N2   N   0.388582587838223   0.942867892513175   0.375000000000000   1.0000000
N2   N   0.217611618178667   0.445449063817853   0.375000000000000   1.0000000
N2   N   0.221264134930080   0.612069198403255   0.375000000000000   1.0000000
N2   N   0.574068413662457   0.453700873497893   0.375000000000000   1.0000000
N2   N   0.722395687375054   0.944791374750110   0.375000000000000   1.0000000
N2   N   0.890465440820154   0.444750745495105   0.375000000000000   1.0000000
N2   N   0.055554154356301   0.611108308712603   0.875000000000000   1.0000000
N2   N   0.222222813553626   0.111115727668175   0.875000000000000   1.0000000
N2   N   0.722217605665160   0.611110519779710   0.875000000000000   1.0000000
N2   N   0.555557578074629   0.111108869695112   0.875000000000000   1.0000000
N2   N   0.888888336160034   0.111110834746688   0.875000000000000   1.0000000
B2   B   0.108135492530920   0.052788271043606   0.375000000000000   1.0000000
B2   B   0.618189721793183   0.561346996610071   0.375000000000000   1.0000000
B2   B   0.444652778512687   0.052788271043606   0.375000000000000   1.0000000
B2   B   0.945286604994683   0.555797021593840   0.375000000000000   1.0000000
B2   B   0.777777777777779   0.055555555555557   0.375000000000000   1.0000000
B2   B   0.111111111111114   0.722222222222221   0.875000000000000   1.0000000
B2   B   0.444449403072568   0.722233590827270   0.875000000000000   1.0000000
B2   B   0.277757296898655   0.222209941738224   0.875000000000000   1.0000000
B2   B   0.777784187754702   0.722233590827270   0.875000000000000   1.0000000
B2   B   0.611120865193533   0.222212468139803   0.875000000000000   1.0000000
B2   B   0.944437201694080   0.222218243093776   0.875000000000000   1.0000000
B2   B   0.277536311739497   0.722822916734178   0.375000000000000   1.0000000
B2   B   0.110194218418638   0.221763775875983   0.375000000000000   1.0000000
B2   B   0.443157274816888   0.215143611540154   0.375000000000000   1.0000000
B2   B   0.611569557457352   0.723139114914699   0.375000000000000   1.0000000
B2   B   0.945286604994683   0.722822916734178   0.375000000000000   1.0000000
B2   B   0.777909108865614   0.221824222958619   0.375000000000000   1.0000000
B2   B   0.111108676576661   0.888887789006010   0.875000000000000   1.0000000
B2   B   0.444448170383923   0.888890751858626   0.875000000000000   1.0000000
B2   B   0.277757296898655   0.388880688493759   0.875000000000000   1.0000000
B2   B   0.611123391595112   0.388880688493759   0.875000000000000   1.0000000
B2   B   0.777781041399696   0.888896131639249   0.875000000000000   1.0000000
B2   B   0.944442581474702   0.388885162949405   0.875000000000000   1.0000000
B2   B   0.108135492530920   0.388680554820642   0.375000000000000   1.0000000
B2   B   0.277536311739497   0.888046728338645   0.375000000000000   1.0000000
B2   B   0.611509110374719   0.889418219240324   0.375000000000000   1.0000000
B2   B   0.944298713991434   0.889034619341894   0.375000000000000   1.0000000
B2   B   0.780545062289728   0.388680554820642   0.375000000000000   1.0000000
B2   B   0.277774724488367   0.555558608844970   0.875000000000000   1.0000000
B2   B   0.111099742506066   0.055549145578635   0.875000000000000   1.0000000
B2   B   0.611123391595112   0.555576036434681   0.875000000000000   1.0000000
B2   B   0.444449403072568   0.055549145578635   0.875000000000000   1.0000000
B2   B   0.944445544327319   0.555554220903979   0.875000000000000   1.0000000
B2   B   0.110510416599157   0.555797021593840   0.375000000000000   1.0000000
B2   B   0.777777777777779   0.055555555555557   0.875000000000000   1.0000000
B2   B   0.276355251203106   0.052710502406212   0.375000000000000   1.0000000
B2   B   0.443157274816888   0.561346996610071   0.375000000000000   1.0000000
B2   B   0.780622830927124   0.556978082130231   0.375000000000000   1.0000000
B2   B   0.611509110374719   0.055424224467722   0.375000000000000   1.0000000
B2   B   0.444452644839570   0.555576036434681   0.875000000000000   1.0000000
B2   B   0.943915114093004   0.055424224467722   0.375000000000000   1.0000000
B2   B   0.277779112429357   0.722224656756674   0.875000000000000   1.0000000
B2   B   0.111091602946278   0.222212468139803   0.875000000000000   1.0000000
B2   B   0.444452644839570   0.222209941738224   0.875000000000000   1.0000000
B2   B   0.611120865193533   0.722241730387057   0.875000000000000   1.0000000
B2   B   0.944445544327319   0.722224656756674   0.875000000000000   1.0000000
B2   B   0.777781041399696   0.222218243093776   0.875000000000000   1.0000000
B2   B   0.111111111111114   0.722222222222221   0.375000000000000   1.0000000
B2   B   0.444652778512687   0.725197840802415   0.375000000000000   1.0000000
B2   B   0.271986336723264   0.215143611540154   0.375000000000000   1.0000000
B2   B   0.780545062289728   0.725197840802415   0.375000000000000   1.0000000
B2   B   0.611569557457352   0.221763775875983   0.375000000000000   1.0000000
B2   B   0.943915114093004   0.221824222958619   0.375000000000000   1.0000000
B2   B   0.111099742506066   0.388883930260761   0.875000000000000   1.0000000
B2   B   0.277779112429357   0.888887789006010   0.875000000000000   1.0000000
B2   B   0.611115090239558   0.888896131639249   0.875000000000000   1.0000000
B2   B   0.444444444444443   0.388888888888886   0.875000000000000   1.0000000
B2   B   0.944442581474702   0.888890751858626   0.875000000000000   1.0000000
B2   B   0.110510416599157   0.888046728338645   0.375000000000000   1.0000000
B2   B   0.777784187754702   0.388883930260761   0.875000000000000   1.0000000
B2   B   0.444735905350461   0.889034619341894   0.375000000000000   1.0000000
B2   B   0.271986336723264   0.390176058516440   0.375000000000000   1.0000000
B2   B   0.276355251203106   0.556978082130231   0.375000000000000   1.0000000
B2   B   0.618189721793183   0.390176058516440   0.375000000000000   1.0000000
B2   B   0.777909108865614   0.889418219240324   0.375000000000000   1.0000000
B2   B   0.944298713991434   0.388597427982868   0.375000000000000   1.0000000
B2   B   0.111108676576661   0.555554220903979   0.875000000000000   1.0000000
B2   B   0.277774724488367   0.055549448976734   0.875000000000000   1.0000000
B2   B   0.777783884356601   0.555558608844970   0.875000000000000   1.0000000
B2   B   0.611115090239558   0.055552291933639   0.875000000000000   1.0000000
B2   B   0.944437201694080   0.055552291933639   0.875000000000000   1.0000000
B2   B   0.055537843759918   0.111093946542351   0.124344574235318   1.0000000
B2   B   0.555587164389986   0.611174328779970   0.124431785192042   1.0000000
B2   B   0.388862280109834   0.111033212454288   0.124325430706722   1.0000000
B2   B   0.888917573997435   0.611125453665389   0.124449419377067   1.0000000
B2   B   0.722224032744375   0.111109300588960   0.124439752892924   1.0000000
B2   B   0.055557554966585   0.777775778366752   0.625495478532257   1.0000000
B2   B   0.388883679641908   0.777786861344584   0.625576281728363   1.0000000
B2   B   0.222159004553365   0.277746168943351   0.625568214807957   1.0000000
B2   B   0.722239386790984   0.777795489573417   0.625655425764682   1.0000000
B2   B   0.555587164389986   0.277746168943351   0.625568214807957   1.0000000
B2   B   0.888888186327972   0.277776372655950   0.625558358685921   1.0000000
B2   B   0.222218223400166   0.777775778366752   0.124504521467743   1.0000000
B2   B   0.055537843759918   0.277777230550902   0.124344574235318   1.0000000
B2   B   0.388745751317633   0.277491502635273   0.125801056995336   1.0000000
B2   B   0.555556102782434   0.777795489573417   0.124344574235318   1.0000000
B2   B   0.888903181702668   0.777786861344584   0.124423718271638   1.0000000
B2   B   0.722239386790984   0.277777230550902   0.124344574235318   1.0000000
B2   B   0.055546471988752   0.944430151630660   0.625576281728363   1.0000000
B2   B   0.388883679641908   0.944430151630660   0.625576281728363   1.0000000
B2   B   0.222170932344447   0.444471053223495   0.625674569293278   1.0000000
B2   B   0.555841830698062   0.444587582015695   0.624198943004664   1.0000000
B2   B   0.722224032744375   0.944448065488751   0.625560247107077   1.0000000
B2   B   0.888903181702668   0.444449653691421   0.625576281728363   1.0000000
B2   B   0.055546471988752   0.444449653691421   0.124423718271638   1.0000000
B2   B   0.222207879667947   0.944415759335893   0.124449419377067   1.0000000
B2   B   0.555556960677386   0.944445147005357   0.124441641314079   1.0000000
B2   B   0.388745751317633   0.444587582015695   0.125801056995336   1.0000000
B2   B   0.888888186327972   0.944445147005357   0.124441641314079   1.0000000
B2   B   0.722300120879048   0.444471053223495   0.124325430706722   1.0000000
B2   B   0.222207879667947   0.611125453665389   0.625550580622934   1.0000000
B2   B   0.055537843759918   0.111093946542351   0.625655425764682   1.0000000
B2   B   0.555587164389986   0.611174328779970   0.625568214807957   1.0000000
B2   B   0.388862280109834   0.111033212454288   0.625674569293278   1.0000000
B2   B   0.888917573997435   0.611125453665389   0.625550580622934   1.0000000
B2   B   0.055557554966585   0.611115109933169   0.124504521467743   1.0000000
B2   B   0.722224032744375   0.111109300588960   0.625560247107077   1.0000000
B2   B   0.222170932344447   0.111033212454288   0.124325430706722   1.0000000
B2   B   0.388862280109834   0.611162400988888   0.124325430706722   1.0000000
B2   B   0.722300120879048   0.611162400988888   0.124325430706722   1.0000000
B2   B   0.555556102782434   0.111093946542351   0.124344574235318   1.0000000
B2   B   0.388862280109834   0.611162400988888   0.625674569293278   1.0000000
B2   B   0.888885267844577   0.111109300588960   0.124439752892924   1.0000000
B2   B   0.222218223400166   0.777775778366752   0.625495478532257   1.0000000
B2   B   0.055537843759918   0.277777230550902   0.625655425764682   1.0000000
B2   B   0.388745751317633   0.277491502635273   0.624198943004664   1.0000000
B2   B   0.555556102782434   0.777795489573417   0.625655425764682   1.0000000
B2   B   0.888903181702668   0.777786861344584   0.625576281728363   1.0000000
B2   B   0.722239386790984   0.277777230550902   0.625655425764682   1.0000000
B2   B   0.055557554966585   0.777775778366752   0.124504521467743   1.0000000
B2   B   0.388883679641908   0.777786861344584   0.124423718271638   1.0000000
B2   B   0.222159004553365   0.277746168943351   0.124431785192042   1.0000000
B2   B   0.722239386790984   0.777795489573417   0.124344574235318   1.0000000
B2   B   0.555587164389986   0.277746168943351   0.124431785192042   1.0000000
B2   B   0.888888186327972   0.277776372655950   0.124441641314079   1.0000000
B2   B   0.055546471988752   0.444449653691421   0.625576281728363   1.0000000
B2   B   0.222207879667947   0.944415759335893   0.625550580622934   1.0000000
B2   B   0.555556960677386   0.944445147005357   0.625558358685921   1.0000000
B2   B   0.388745751317633   0.444587582015695   0.624198943004664   1.0000000
B2   B   0.888888186327972   0.944445147005357   0.625558358685921   1.0000000
B2   B   0.055546471988752   0.944430151630660   0.124423718271638   1.0000000
B2   B   0.722300120879048   0.444471053223495   0.625674569293278   1.0000000
B2   B   0.388883679641908   0.944430151630660   0.124423718271638   1.0000000
B2   B   0.222170932344447   0.444471053223495   0.124325430706722   1.0000000
B2   B   0.222207879667947   0.611125453665389   0.124449419377067   1.0000000
B2   B   0.555841830698062   0.444587582015695   0.125801056995336   1.0000000
B2   B   0.722224032744375   0.944448065488751   0.124439752892924   1.0000000
B2   B   0.888903181702668   0.444449653691421   0.124423718271638   1.0000000
B2   B   0.055557554966585   0.611115109933169   0.625495478532257   1.0000000
B2   B   0.222170932344447   0.111033212454288   0.625674569293278   1.0000000
B2   B   0.722300120879048   0.611162400988888   0.625674569293278   1.0000000
B2   B   0.555556102782434   0.111093946542351   0.625655425764682   1.0000000
B2   B   0.888885267844577   0.111109300588960   0.625560247107077   1.0000000


