data_1
_audit_creation_method   'vasp2cif'
_cell_length_a    17.52789999999977
_cell_length_b    17.52789999999977
_cell_length_c    15.0
_cell_angle_alpha    90.0
_cell_angle_beta    90.0
_cell_angle_gamma    119.99999999999916

_symmetry_space_group_name_H-M    'P 1'
loop_
_atom_site_label
_atom_site_type_symbol
_atom_site_fract_x
_atom_site_fract_y
_atom_site_fract_z
_atom_site_occupancy
Sb2   Sb   0.470895291731226   0.529093382994931   0.246078859700461   1.0000000
B2   B   0.905020666016512   0.952468193355867   0.102181490122194   1.0000000
B2   B   0.904807107777980   0.095193100123792   0.100448998614460   1.0000000
B2   B   0.904769444390795   0.238040895789159   0.100706816700002   1.0000000
B2   B   0.904810414276237   0.380911722149051   0.101359307181929   1.0000000
B2   B   0.904965459748051   0.523788869770590   0.102686010537900   1.0000000
B2   B   0.904717085327935   0.666573454003955   0.105654540837347   1.0000000
B2   B   0.904796158872711   0.809434834609915   0.105785935384890   1.0000000
B2   B   0.047690892487941   0.952312294885725   0.103749117565771   1.0000000
B2   B   0.047532376222327   0.094980629512065   0.102188013400206   1.0000000
B2   B   0.047437282046482   0.237820863576559   0.102598874672601   1.0000000
B2   B   0.047461600427321   0.380880585395103   0.103507648082879   1.0000000
B2   B   0.047569456620470   0.523793475701111   0.104090876028498   1.0000000
B2   B   0.047712915990026   0.666615578275400   0.104850029732026   1.0000000
B2   B   0.047714878152861   0.809471323747984   0.105197779630953   1.0000000
B2   B   0.190532311906725   0.952288645497405   0.105228721354462   1.0000000
B2   B   0.190567486439842   0.095207304894504   0.105804342429048   1.0000000
B2   B   0.189747037695180   0.237326956524493   0.108578960826013   1.0000000
B2   B   0.189780676946322   0.380421160993403   0.112448686867679   1.0000000
B2   B   0.189894259286677   0.523598215835474   0.110089908013028   1.0000000
B2   B   0.190648313677691   0.666541609257187   0.107922463855012   1.0000000
B2   B   0.190563732343281   0.809439649721452   0.106138091372702   1.0000000
B2   B   0.333386424321437   0.952286917900747   0.104902024988800   1.0000000
B2   B   0.333431260382986   0.095286723898305   0.105701038353948   1.0000000
B2   B   0.333621661831720   0.238390164420270   0.115092180678687   1.0000000
B2   B   0.329884354072653   0.377971693593673   0.135341096843328   1.0000000
B2   B   0.329727429848252   0.522232246362543   0.136449910228131   1.0000000
B2   B   0.333651043324001   0.666351716744927   0.117850249288576   1.0000000
B2   B   0.333463671520270   0.809357153795127   0.107941300771731   1.0000000
B2   B   0.476215342267387   0.952434331890576   0.104138410008359   1.0000000
B2   B   0.476212698437667   0.095035816257602   0.102744210648139   1.0000000
B2   B   0.476345777897251   0.237652236307842   0.106413328494994   1.0000000
B2   B   0.478025058146271   0.380559073893416   0.127469310197438   1.0000000
B2   B   0.477771663711706   0.670274429720640   0.136460890200772   1.0000000
B2   B   0.476404564681014   0.810106631448833   0.110109384766761   1.0000000
B2   B   0.619121386413169   0.952537540287290   0.103535306627347   1.0000000
B2   B   0.619087765705600   0.095187363201935   0.101405692320013   1.0000000
B2   B   0.619155087898254   0.237910524972210   0.101357606326256   1.0000000
B2   B   0.619348405926366   0.380652246876719   0.106917124651224   1.0000000
B2   B   0.619443701314327   0.521976613504594   0.127466795443180   1.0000000
B2   B   0.622030879971114   0.670116185181011   0.135359858872855   1.0000000
B2   B   0.619580846344111   0.810218003893789   0.112460707047994   1.0000000
B2   B   0.762180069264547   0.952561992116602   0.102601848802648   1.0000000
B2   B   0.761959543353446   0.095229913896849   0.100712424699981   1.0000000
B2   B   0.761967053040262   0.238032510611587   0.100497352566942   1.0000000
B2   B   0.762089285611793   0.380846402950170   0.101328456922179   1.0000000
B2   B   0.762348202954059   0.523656826486910   0.106375569962406   1.0000000
B2   B   0.761612346698159   0.666379938489239   0.115084937560797   1.0000000
B2   B   0.762673860972296   0.810251625018231   0.108577836728653   1.0000000
N2   N   0.952466909757250   0.904675918515466   0.103463067450493   1.0000000
N2   N   0.952433506941153   0.047566194880223   0.100923796816402   1.0000000
N2   N   0.952314302315203   0.190372412012875   0.100602678281419   1.0000000
N2   N   0.952320523901223   0.333245311008388   0.101429955974734   1.0000000
N2   N   0.952436898305708   0.476143653034363   0.102353668540576   1.0000000
N2   N   0.952446162717532   0.619033461175675   0.103991110518384   1.0000000
N2   N   0.952436727079946   0.761832348757137   0.105579475281009   1.0000000
N2   N   0.095306831433687   0.904696653224178   0.104893199610306   1.0000000
N2   N   0.095326648071821   0.047535481527966   0.103477983321559   1.0000000
N2   N   0.094832648548347   0.189991321875524   0.103046571037912   1.0000000
N2   N   0.094910882408585   0.333058676693385   0.104895179877288   1.0000000
N2   N   0.094907038559543   0.476088224184800   0.104875682665913   1.0000000
N2   N   0.095356029286131   0.619021537104325   0.105372837572703   1.0000000
N2   N   0.095324273906228   0.761848877566634   0.105551920942752   1.0000000
N2   N   0.238152660913668   0.904678294445848   0.105587344476189   1.0000000
N2   N   0.238171088342739   0.047566734484712   0.105621264335111   1.0000000
N2   N   0.238188716053220   0.190430050264661   0.109502159893684   1.0000000
N2   N   0.236529040128379   0.331784677962777   0.115705493219459   1.0000000
N2   N   0.236698004418316   0.475783024371140   0.115827621228612   1.0000000
N2   N   0.238279774356056   0.618906180189592   0.111614421155790   1.0000000
N2   N   0.238204182492571   0.761798195924724   0.107497989098761   1.0000000
N2   N   0.380983004063850   0.904646632744259   0.105418900659756   1.0000000
N2   N   0.380967533329312   0.047554986360124   0.104047735523258   1.0000000
N2   N   0.381020652034109   0.190495615586183   0.108449074950578   1.0000000
N2   N   0.380951905927392   0.332920173243361   0.129075608855413   1.0000000
N2   N   0.368739024148758   0.469293046773523   0.159273212056007   1.0000000
N2   N   0.381060545817490   0.618942077636290   0.132778643522040   1.0000000
N2   N   0.381096797990614   0.761721692646078   0.111627420812469   1.0000000
N2   N   0.523916056784437   0.905094460555281   0.104908756953143   1.0000000
N2   N   0.523861331226240   0.047567095734937   0.102415792654865   1.0000000
N2   N   0.523896319744188   0.190116639147120   0.102296575151475   1.0000000
N2   N   0.524079168609411   0.332192069855880   0.110020174456689   1.0000000
N2   N   0.528870261002092   0.471132630037403   0.142645436194135   1.0000000
N2   N   0.530711204786371   0.631265193339992   0.159293642512918   1.0000000
N2   N   0.524220056741855   0.763301453696894   0.115838393779402   1.0000000
N2   N   0.666944267897429   0.905088248355933   0.104912066833323   1.0000000
N2   N   0.666756714070637   0.047679034641352   0.101455521271419   1.0000000
N2   N   0.666768660213087   0.190375385544711   0.100684549500181   1.0000000
N2   N   0.666918058058924   0.333083078961480   0.101766605735368   1.0000000
N2   N   0.667807686145372   0.475923571996370   0.109995355695352   1.0000000
N2   N   0.667083907666481   0.619049789424066   0.129087970988421   1.0000000
N2   N   0.668217154981754   0.763469498301256   0.115712560148281   1.0000000
N2   N   0.810009450489208   0.905166191262310   0.103043291786637   1.0000000
N2   N   0.809628099822027   0.047684732194226   0.100597038407645   1.0000000
N2   N   0.809570328484411   0.190429184301977   0.100397590089281   1.0000000
N2   N   0.809624338721039   0.333232837920370   0.100651356132807   1.0000000
N2   N   0.809884702214870   0.476106420988617   0.102250944386286   1.0000000
N2   N   0.809506749055659   0.618982357258403   0.108416847641094   1.0000000
N2   N   0.809572802032009   0.761812968245401   0.109495185094428   1.0000000


