data_1
_audit_creation_method   'vasp2cif'
_cell_length_a    14.93631414619966
_cell_length_b    14.936314146199727
_cell_length_c    13.341276283792837
_cell_angle_alpha    90.0
_cell_angle_beta    90.0
_cell_angle_gamma    119.99999999999984

_symmetry_space_group_name_H-M    'P 1'
loop_
_atom_site_label
_atom_site_type_symbol
_atom_site_fract_x
_atom_site_fract_y
_atom_site_fract_z
_atom_site_occupancy
Ge2   Ge   0.471967745566338   0.402650539449839   0.375000000000000   1.0000000
N2   N   0.111376332007451   0.055676743733616   0.124829334391594   1.0000000
N2   N   0.611380867189355   0.555730173853993   0.131258965820649   1.0000000
N2   N   0.444634406056143   0.055637452763814   0.125173960315865   1.0000000
N2   N   0.944662915836788   0.555672361341194   0.125106530474584   1.0000000
N2   N   0.777981974560358   0.055657653946842   0.124296671074684   1.0000000
N2   N   0.111314725115590   0.722324029224462   0.625465219528000   1.0000000
N2   N   0.444634406056143   0.722330286625643   0.624826039684126   1.0000000
N2   N   0.278093327491964   0.222366214368275   0.621975749596968   1.0000000
N2   N   0.777996470510857   0.722318392982878   0.623710701163481   1.0000000
N2   N   0.611293305186628   0.222316091246581   0.623556276172231   1.0000000
N2   N   0.944694153622574   0.222354895342825   0.625436432968289   1.0000000
N2   N   0.277969984997764   0.722327553450964   0.124547441170456   1.0000000
N2   N   0.111426969324323   0.222380151328830   0.125323674216492   1.0000000
N2   N   0.444667194129625   0.222316545745914   0.129153750007750   1.0000000
N2   N   0.611293305186628   0.722310547273448   0.126443723827789   1.0000000
N2   N   0.944662915836788   0.722323887828974   0.125106530474584   1.0000000
N2   N   0.777978724528611   0.222341544113403   0.124726189883439   1.0000000
N2   N   0.111327350107541   0.888983927760756   0.625428197128060   1.0000000
N2   N   0.444622668058278   0.888978000695773   0.625683475378543   1.0000000
N2   N   0.278093327491964   0.389060446457036   0.621975749596968   1.0000000
N2   N   0.611380867189355   0.388984026668650   0.618741034179353   1.0000000
N2   N   0.777978724528611   0.888970513748554   0.625273810116609   1.0000000
N2   N   0.944676293619912   0.389018501319509   0.625302334297639   1.0000000
N2   N   0.111376332007451   0.389032921607178   0.124829334391594   1.0000000
N2   N   0.277969984997764   0.888975764880100   0.124547441170456   1.0000000
N2   N   0.611290625378326   0.888978413330356   0.124354086210499   1.0000000
N2   N   0.444797567078844   0.389065450206158   0.137445411802111   1.0000000
N2   N   0.944676293619912   0.888991125633681   0.124697665702402   1.0000000
N2   N   0.777996470510857   0.389011410861178   0.126289298836559   1.0000000
N2   N   0.278004748216435   0.555687732327589   0.624443482975770   1.0000000
N2   N   0.111376332007451   0.055676743733617   0.625170665608365   1.0000000
N2   N   0.611380867189355   0.555730173853993   0.618741034179353   1.0000000
N2   N   0.444634406056143   0.055637452763813   0.624826039684126   1.0000000
N2   N   0.944662915836788   0.555672361341194   0.624893469525433   1.0000000
N2   N   0.111327350107541   0.555676755680108   0.124571802871953   1.0000000
N2   N   0.777981974560358   0.055657653946842   0.625703328925276   1.0000000
N2   N   0.278004748216429   0.055650349222308   0.125556517024274   1.0000000
N2   N   0.444667194129625   0.555683981717039   0.129153750007750   1.0000000
N2   N   0.778001370230114   0.555667351781680   0.127641815119646   1.0000000
N2   N   0.611290625378326   0.055645545381369   0.124354086210499   1.0000000
N2   N   0.444667194129625   0.555683981717039   0.620846249992233   1.0000000
N2   N   0.944694153622574   0.055672591613087   0.124563567031732   1.0000000
N2   N   0.277969984997764   0.722327553450964   0.625452558829616   1.0000000
N2   N   0.111426969324323   0.222380151328830   0.624676325783495   1.0000000
N2   N   0.444667194129625   0.222316545745914   0.620846249992233   1.0000000
N2   N   0.611293305186628   0.722310547273448   0.623556276172231   1.0000000
N2   N   0.944662915836788   0.722323887828974   0.624893469525433   1.0000000
N2   N   0.777978724528611   0.222341544113403   0.625273810116609   1.0000000
N2   N   0.111314725115590   0.722324029224462   0.124534780471964   1.0000000
N2   N   0.444634406056140   0.722330286625643   0.125173960315865   1.0000000
N2   N   0.278093327491964   0.222366214368275   0.128024250403036   1.0000000
N2   N   0.777996470510857   0.722318392982878   0.126289298836559   1.0000000
N2   N   0.611293305186628   0.222316091246581   0.126443723827789   1.0000000
N2   N   0.944694153622574   0.222354895342825   0.124563567031732   1.0000000
N2   N   0.111376332007451   0.389032921607178   0.625170665608365   1.0000000
N2   N   0.277969984997764   0.888975764880100   0.625452558829616   1.0000000
N2   N   0.611290625378326   0.888978413330356   0.625645913789490   1.0000000
N2   N   0.444797567078844   0.389065450206158   0.612554588197933   1.0000000
N2   N   0.944676293619912   0.888991125633681   0.625302334297639   1.0000000
N2   N   0.111327350107539   0.888983927760756   0.124571802871953   1.0000000
N2   N   0.777996470510857   0.389011410861178   0.623710701163481   1.0000000
N2   N   0.444622668058278   0.888978000695773   0.124316524621501   1.0000000
N2   N   0.278093327491964   0.389060446457036   0.128024250403036   1.0000000
N2   N   0.278004748216435   0.555687732327589   0.125556517024274   1.0000000
N2   N   0.611380867189355   0.388984026668650   0.131258965820649   1.0000000
N2   N   0.777978724528611   0.888970513748554   0.124726189883439   1.0000000
N2   N   0.944676293619912   0.389018501319509   0.124697665702402   1.0000000
N2   N   0.111327350107541   0.555676755680108   0.625428197128060   1.0000000
N2   N   0.278004748216435   0.055650349222308   0.624443482975770   1.0000000
N2   N   0.778001370230114   0.555667351781680   0.622358184880353   1.0000000
N2   N   0.611290625378326   0.055645545381366   0.625645913789490   1.0000000
N2   N   0.944694153622574   0.055672591613087   0.625436432968289   1.0000000
N2   N   0.055400490815597   0.111125530616156   0.375000000000000   1.0000000
N2   N   0.553277571643212   0.613143275798601   0.375000000000000   1.0000000
N2   N   0.386614234160214   0.105699168727420   0.375000000000000   1.0000000
N2   N   0.886705645108604   0.610019489220981   0.375000000000000   1.0000000
N2   N   0.721867932209857   0.110538883629735   0.375000000000000   1.0000000
N2   N   0.055735358981478   0.777873553716896   0.875000000000000   1.0000000
N2   N   0.389089989377157   0.777871951720814   0.875000000000000   1.0000000
N2   N   0.222413857357503   0.277873595345455   0.875000000000000   1.0000000
N2   N   0.722412053155920   0.777875334130676   0.875000000000000   1.0000000
N2   N   0.555746870154984   0.277881495008221   0.875000000000000   1.0000000
N2   N   0.889078872646055   0.277866883357294   0.875000000000000   1.0000000
N2   N   0.219941481243579   0.776637407288510   0.375000000000000   1.0000000
N2   N   0.055400490815597   0.277608293532754   0.375000000000000   1.0000000
N2   N   0.387042221032421   0.268627020840148   0.375000000000000   1.0000000
N2   N   0.554521879430635   0.778968776022563   0.375000000000000   1.0000000
N2   N   0.887507070915498   0.777285551499696   0.375000000000000   1.0000000
N2   N   0.721542991058020   0.276535050570027   0.375000000000000   1.0000000
N2   N   0.055740071681322   0.944546978422655   0.875000000000000   1.0000000
N2   N   0.389089989377186   0.944551370989567   0.875000000000000   1.0000000
N2   N   0.222413343246906   0.444524873398979   0.875000000000000   1.0000000
N2   N   0.555730930817641   0.444532132075485   0.875000000000000   1.0000000
N2   N   0.722417624858322   0.944544006116495   0.875000000000000   1.0000000
N2   N   0.889070728310805   0.444528069412213   0.875000000000000   1.0000000
N2   N   0.054126495158537   0.443910045293753   0.375000000000000   1.0000000
N2   N   0.219897752402114   0.942345842262029   0.375000000000000   1.0000000
N2   N   0.554666340974493   0.943999837153947   0.375000000000000   1.0000000
N2   N   0.387042221032421   0.451748533525669   0.375000000000000   1.0000000
N2   N   0.888424009881151   0.944567123372410   0.375000000000000   1.0000000
N2   N   0.720683714175978   0.443920249903619   0.375000000000000   1.0000000
N2   N   0.222414878315805   0.611193332346568   0.875000000000000   1.0000000
N2   N   0.055741431312764   0.111209182494914   0.875000000000000   1.0000000
N2   N   0.555746870154984   0.611198708480150   0.875000000000000   1.0000000
N2   N   0.389091177579942   0.111230315838553   0.875000000000000   1.0000000
N2   N   0.889060072384070   0.611196702858714   0.875000000000000   1.0000000
N2   N   0.053300356298245   0.610144413469664   0.375000000000000   1.0000000
N2   N   0.722417624858322   0.111206952075169   0.875000000000000   1.0000000
N2   N   0.220785417941879   0.109347009086819   0.375000000000000   1.0000000
N2   N   0.386614234160214   0.614248398766038   0.375000000000000   1.0000000
N2   N   0.720683714175978   0.610096797605757   0.375000000000000   1.0000000
N2   N   0.554521879430635   0.108886436741465   0.375000000000000   1.0000000
N2   N   0.389091177579942   0.611194195074749   0.875000000000000   1.0000000
N2   N   0.888730648060659   0.111031990696996   0.375000000000000   1.0000000
N2   N   0.222413733355519   0.777873533344421   0.875000000000000   1.0000000
N2   N   0.055741431312764   0.277865582151159   0.875000000000000   1.0000000
N2   N   0.389088860879641   0.277894657507349   0.875000000000000   1.0000000
N2   N   0.555754447740858   0.777873654318059   0.875000000000000   1.0000000
N2   N   0.889070728310815   0.777875992232008   0.875000000000000   1.0000000
N2   N   0.722412053155920   0.277870052358587   0.875000000000000   1.0000000
N2   N   0.053300356298246   0.776489276161984   0.375000000000000   1.0000000
N2   N   0.387096907057038   0.778106527344035   0.375000000000000   1.0000000
N2   N   0.223032585891862   0.278182959612588   0.375000000000000   1.0000000
N2   N   0.721542991058020   0.778341273821366   0.375000000000000   1.0000000
N2   N   0.553277571643212   0.273467629177955   0.375000000000000   1.0000000
N2   N   0.888424009881151   0.277190219842207   0.375000000000000   1.0000000
N2   N   0.055740071681322   0.444526426591936   0.875000000000000   1.0000000
N2   N   0.222414878315805   0.944554879302604   0.875000000000000   1.0000000
N2   N   0.555754515579413   0.944543924456327   0.875000000000000   1.0000000
N2   N   0.389088860879641   0.444527536705610   0.875000000000000   1.0000000
N2   N   0.889078872646055   0.944545322622068   0.875000000000000   1.0000000
N2   N   0.054126495158537   0.943549783198119   0.375000000000000   1.0000000
N2   N   0.722397324698657   0.444530475470920   0.875000000000000   1.0000000
N2   N   0.387096907057021   0.942323713046258   0.375000000000000   1.0000000
N2   N   0.220785417941879   0.444771742188365   0.375000000000000   1.0000000
N2   N   0.219897752402114   0.610885243473330   0.375000000000000   1.0000000
N2   N   0.721867932209857   0.944662381913533   0.375000000000000   1.0000000
N2   N   0.887507070915498   0.443554852749145   0.375000000000000   1.0000000
N2   N   0.055735358981478   0.611195138597951   0.875000000000000   1.0000000
N2   N   0.222413343246906   0.111221803181289   0.875000000000000   1.0000000
N2   N   0.722397324698657   0.611200182560950   0.875000000000000   1.0000000
N2   N   0.555754447740858   0.111214126756138   0.875000000000000   1.0000000
N2   N   0.889080503734621   0.111206918533993   0.875000000000000   1.0000000
B2   B   0.109536225585502   0.054424097286883   0.375000000000000   1.0000000
B2   B   0.616415081546024   0.571082491786946   0.375000000000000   1.0000000
B2   B   0.443172376862300   0.051732270051932   0.375000000000000   1.0000000
B2   B   0.943129498424576   0.554644125551183   0.375000000000000   1.0000000
B2   B   0.777916344732238   0.055624839032741   0.375000000000000   1.0000000
B2   B   0.111314394850059   0.722323864091660   0.875000000000000   1.0000000
B2   B   0.444636730921119   0.722361961611319   0.875000000000000   1.0000000
B2   B   0.277868098667081   0.222255327049693   0.875000000000000   1.0000000
B2   B   0.778030614319069   0.722412133011838   0.875000000000000   1.0000000
B2   B   0.611338091042135   0.222255867811325   0.875000000000000   1.0000000
B2   B   0.944624694729422   0.222294130749501   0.875000000000000   1.0000000
B2   B   0.275748269098800   0.721869289160182   0.375000000000000   1.0000000
B2   B   0.110752058173444   0.222042695753384   0.375000000000000   1.0000000
B2   B   0.440956496419930   0.213231490860212   0.375000000000000   1.0000000
B2   B   0.611528703881469   0.726771995216327   0.375000000000000   1.0000000
B2   B   0.943129498424576   0.721818706206691   0.375000000000000   1.0000000
B2   B   0.777958192563585   0.220997587942524   0.375000000000000   1.0000000
B2   B   0.111296174670124   0.888992466333845   0.875000000000000   1.0000000
B2   B   0.444646783585452   0.888990058459379   0.875000000000000   1.0000000
B2   B   0.277868098667081   0.388946104950757   0.875000000000000   1.0000000
B2   B   0.611345398104401   0.388943052566644   0.875000000000000   1.0000000
B2   B   0.778008879389497   0.889059806160653   0.875000000000000   1.0000000
B2   B   0.944654753914664   0.388953786009319   0.875000000000000   1.0000000
B2   B   0.109536225585502   0.388445461631900   0.375000000000000   1.0000000
B2   B   0.275748269098800   0.887212313271926   0.375000000000000   1.0000000
B2   B   0.611052800798246   0.890068547568701   0.375000000000000   1.0000000
B2   B   0.943594125631603   0.889034025297836   0.375000000000000   1.0000000
B2   B   0.778147834525067   0.386817584432964   0.375000000000000   1.0000000
B2   B   0.277926034384894   0.555647868016025   0.875000000000000   1.0000000
B2   B   0.111252345793249   0.055634436132055   0.875000000000000   1.0000000
B2   B   0.611345398104401   0.555735678871236   0.875000000000000   1.0000000
B2   B   0.444636730921119   0.055608102643158   0.875000000000000   1.0000000
B2   B   0.944678835464049   0.555650653199824   0.875000000000000   1.0000000
B2   B   0.109010706122306   0.554856221271927   0.375000000000000   1.0000000
B2   B   0.777996007654816   0.055664670494123   0.875000000000000   1.0000000
B2   B   0.275003203524462   0.052342170205252   0.375000000000000   1.0000000
B2   B   0.440956496419930   0.561058338893038   0.375000000000000   1.0000000
B2   B   0.777925754195148   0.555629543764321   0.375000000000000   1.0000000
B2   B   0.611052800798246   0.054317586562954   0.375000000000000   1.0000000
B2   B   0.444606094481608   0.555692253013837   0.875000000000000   1.0000000
B2   B   0.944299740376629   0.055801405394567   0.375000000000000   1.0000000
B2   B   0.277963248870013   0.722322757582720   0.875000000000000   1.0000000
B2   B   0.111225514997712   0.222279424165529   0.875000000000000   1.0000000
B2   B   0.444606094481609   0.222247174801095   0.875000000000000   1.0000000
B2   B   0.611338091042143   0.722415556564170   0.875000000000000   1.0000000
B2   B   0.944678835464049   0.722361515597580   0.875000000000000   1.0000000
B2   B   0.778008879389497   0.222282406562183   0.875000000000000   1.0000000
B2   B   0.109071585707083   0.721202459520096   0.375000000000000   1.0000000
B2   B   0.443172376862300   0.724773440143672   0.375000000000000   1.0000000
B2   B   0.275224022571520   0.219569298170514   0.375000000000000   1.0000000
B2   B   0.778147834525067   0.724663583425464   0.375000000000000   1.0000000
B2   B   0.611528703881469   0.218090041998598   0.375000000000000   1.0000000
B2   B   0.944299740376629   0.221831668315429   0.375000000000000   1.0000000
B2   B   0.111252345793249   0.388951242994504   0.875000000000000   1.0000000
B2   B   0.277963248870013   0.888973824620600   0.875000000000000   1.0000000
B2   B   0.611333842651339   0.889034314031634   0.875000000000000   1.0000000
B2   B   0.444559570274232   0.388946451803790   0.875000000000000   1.0000000
B2   B   0.944654753914664   0.889034301238590   0.875000000000000   1.0000000
B2   B   0.109010706122306   0.887487818183804   0.375000000000000   1.0000000
B2   B   0.778030614319069   0.388951814640710   0.875000000000000   1.0000000
B2   B   0.443428933019802   0.888381133176527   0.375000000000000   1.0000000
B2   B   0.275224022571520   0.388988057734379   0.375000000000000   1.0000000
B2   B   0.275003203524462   0.555994366652619   0.375000000000000   1.0000000
B2   B   0.616415081546024   0.378665923092322   0.375000000000000   1.0000000
B2   B   0.777958192563585   0.890293937954437   0.375000000000000   1.0000000
B2   B   0.943594125631603   0.387893433667049   0.375000000000000   1.0000000
B2   B   0.111296174670124   0.555637041669654   0.875000000000000   1.0000000
B2   B   0.277926034384894   0.055611499702218   0.875000000000000   1.0000000
B2   B   0.778035924363282   0.555684628848235   0.875000000000000   1.0000000
B2   B   0.611333842651339   0.055632861953050   0.875000000000000   1.0000000
B2   B   0.944624694729422   0.055663897313211   0.875000000000000   1.0000000
B2   B   0.055746818028824   0.111179193364133   0.124509899228539   1.0000000
B2   B   0.555737245067409   0.611538335426830   0.128035900323414   1.0000000
B2   B   0.388914872244701   0.110832740664606   0.125838803484726   1.0000000
B2   B   0.889436219912252   0.611384776622728   0.125173352145342   1.0000000
B2   B   0.722435846550708   0.111154156013451   0.124008364470792   1.0000000
B2   B   0.055899454346122   0.777933501537674   0.625748315073585   1.0000000
B2   B   0.388989098734309   0.777932297543804   0.625827546878227   1.0000000
B2   B   0.222268184478160   0.277800758905798   0.623310804173672   1.0000000
B2   B   0.722541777551729   0.778093544962881   0.624857792207495   1.0000000
B2   B   0.555737245067409   0.277532242973867   0.621964099676554   1.0000000
B2   B   0.889178714988272   0.277886017958228   0.625762188897773   1.0000000
B2   B   0.222410432660361   0.777871882996812   0.124116358800387   1.0000000
B2   B   0.055746818028824   0.277900957998050   0.124509899228539   1.0000000
B2   B   0.388739156651836   0.277296728915620   0.130696643372953   1.0000000
B2   B   0.555692253198597   0.778044922450544   0.124711872371346   1.0000000
B2   B   0.889332203865837   0.778049611438485   0.124742921920868   1.0000000
B2   B   0.722541777551729   0.277781565922174   0.125142207792534   1.0000000
B2   B   0.055814597611322   0.944536173297226   0.625762840289273   1.0000000
B2   B   0.388989098734309   0.944390134523853   0.625827546878227   1.0000000
B2   B   0.222303366870984   0.444644445970886   0.624520930759865   1.0000000
B2   B   0.556177214782045   0.444755274057687   0.618279950425294   1.0000000
B2   B   0.722435846550708   0.944615023870674   0.625991635529288   1.0000000
B2   B   0.889332203865837   0.444615925760793   0.625257078079129   1.0000000
B2   B   0.055814597611321   0.444611757647443   0.124237159710692   1.0000000
B2   B   0.222370606884641   0.944399684592891   0.124390341845252   1.0000000
B2   B   0.555691282877873   0.944512308105594   0.123855070577332   1.0000000
B2   B   0.388739156651836   0.444775761069592   0.130696643372948   1.0000000
B2   B   0.889178714988272   0.944626030363431   0.124237811102176   1.0000000
B2   B   0.722839045404970   0.444648062934061   0.127342680359585   1.0000000
B2   B   0.222370606884641   0.611304255624975   0.625609658154805   1.0000000
B2   B   0.055746818028824   0.111179193364133   0.625490100771428   1.0000000
B2   B   0.555737245067409   0.611538335426830   0.621964099676554   1.0000000
B2   B   0.388914872244701   0.110832740664606   0.624161196515284   1.0000000
B2   B   0.889436219912252   0.611384776622728   0.624826647854624   1.0000000
B2   B   0.055899454346122   0.611299286141709   0.124251684926364   1.0000000
B2   B   0.722435846550708   0.111154156013451   0.625991635529288   1.0000000
B2   B   0.222303366870984   0.110992254233412   0.125479069240050   1.0000000
B2   B   0.388914872244701   0.611415464913449   0.125838803484726   1.0000000
B2   B   0.722839045404970   0.611524315804213   0.127342680359585   1.0000000
B2   B   0.555692253198597   0.110980664081383   0.124711872371350   1.0000000
B2   B   0.388914872244701   0.611415464913449   0.624161196515284   1.0000000
B2   B   0.889121441113484   0.111227387223416   0.124130664573957   1.0000000
B2   B   0.222410432660361   0.777871882996812   0.625883641199693   1.0000000
B2   B   0.055746818028824   0.277900957998050   0.625490100771428   1.0000000
B2   B   0.388739156651836   0.277296728915620   0.619303356627041   1.0000000
B2   B   0.555692253198597   0.778044922450544   0.625288127628687   1.0000000
B2   B   0.889332203865837   0.778049611438485   0.625257078079129   1.0000000
B2   B   0.722541777551729   0.277781565922174   0.624857792207495   1.0000000
B2   B   0.055899454346122   0.777933501537674   0.124251684926364   1.0000000
B2   B   0.388989098734309   0.777932297543804   0.124172453121744   1.0000000
B2   B   0.222268184478160   0.277800758905798   0.126689195826317   1.0000000
B2   B   0.722541777551729   0.778093544962881   0.125142207792534   1.0000000
B2   B   0.555737245067409   0.277532242973867   0.128035900323414   1.0000000
B2   B   0.889178714988272   0.277886017958228   0.124237811102176   1.0000000
B2   B   0.055814597611322   0.444611757647443   0.625762840289273   1.0000000
B2   B   0.222370606884641   0.944399684592891   0.625609658154805   1.0000000
B2   B   0.555691282877873   0.944512308105594   0.626144929422676   1.0000000
B2   B   0.388739156651836   0.444775761069592   0.619303356627041   1.0000000
B2   B   0.889178714988272   0.944626030363431   0.625762188897773   1.0000000
B2   B   0.055814597611321   0.944536173297226   0.124237159710692   1.0000000
B2   B   0.722839045404970   0.444648062934061   0.622657319640389   1.0000000
B2   B   0.388989098734309   0.944390134523853   0.124172453121744   1.0000000
B2   B   0.222303366870984   0.444644445970886   0.125479069240050   1.0000000
B2   B   0.222370606884641   0.611304255624975   0.124390341845252   1.0000000
B2   B   0.556177214782045   0.444755274057687   0.131720049574658   1.0000000
B2   B   0.722435846550708   0.944615023870674   0.124008364470792   1.0000000
B2   B   0.889332203865837   0.444615925760793   0.124742921920868   1.0000000
B2   B   0.055899454346122   0.611299286141709   0.625748315073585   1.0000000
B2   B   0.222303366870984   0.110992254233412   0.624520930759865   1.0000000
B2   B   0.722839045404970   0.611524315804213   0.622657319640389   1.0000000
B2   B   0.555692253198597   0.110980664081389   0.625288127628687   1.0000000
B2   B   0.889121441113484   0.111227387223416   0.625869335425929   1.0000000


