data_1
_audit_creation_method   'vasp2cif'
_cell_length_a    17.52789999999977
_cell_length_b    17.52789999999977
_cell_length_c    15.0
_cell_angle_alpha    90.0
_cell_angle_beta    90.0
_cell_angle_gamma    119.99999999999916

_symmetry_space_group_name_H-M    'P 1'
loop_
_atom_site_label
_atom_site_type_symbol
_atom_site_fract_x
_atom_site_fract_y
_atom_site_fract_z
_atom_site_occupancy
B2   B   0.903140024385086   0.951089284474921   0.110994718800132   1.0000000
B2   B   0.905489606754176   0.095549741515454   0.111037757070484   1.0000000
B2   B   0.905998541424706   0.238713617557856   0.111090928743336   1.0000000
B2   B   0.905489606754176   0.381368558929719   0.111037757070484   1.0000000
B2   B   0.903140024385086   0.523481145158167   0.110994718800132   1.0000000
B2   B   0.901089527158439   0.665206682016442   0.111006232309413   1.0000000
B2   B   0.901089527158439   0.807313250389997   0.111006232309413   1.0000000
B2   B   0.046418463581258   0.951793400920765   0.110994181648133   1.0000000
B2   B   0.048183249499866   0.095679603072671   0.110999684321361   1.0000000
B2   B   0.049520941462332   0.239187707097194   0.111023156033006   1.0000000
B2   B   0.049520941462332   0.381763639612139   0.111023156033006   1.0000000
B2   B   0.048183249499866   0.523934051675189   0.110999684321361   1.0000000
B2   B   0.046418463581258   0.666057179464491   0.110994181648133   1.0000000
B2   B   0.045628109668752   0.808530113236377   0.110973777181350   1.0000000
B2   B   0.189629220852109   0.952035826212808   0.110983193735202   1.0000000
B2   B   0.191254612958143   0.096201716836999   0.111024882965208   1.0000000
B2   B   0.193259619774475   0.240258789144449   0.111002534945303   1.0000000
B2   B   0.193943816342367   0.382687110794683   0.110998893165765   1.0000000
B2   B   0.193259619774475   0.524431235878028   0.111002534945303   1.0000000
B2   B   0.191254612958143   0.666483301369139   0.111024882965208   1.0000000
B2   B   0.189629220852109   0.809025511443305   0.110983193735202   1.0000000
B2   B   0.332889798798374   0.952160957800689   0.111012695510404   1.0000000
B2   B   0.333281112465193   0.095321506027721   0.111052115152194   1.0000000
B2   B   0.336374327554823   0.240723466557445   0.111077152094358   1.0000000
B2   B   0.339188844335147   0.385158652679765   0.111050366354939   1.0000000
B2   B   0.339188844335147   0.525460596902382   0.111050366354939   1.0000000
B2   B   0.336374327554823   0.667081266244377   0.111077152094358   1.0000000
B2   B   0.333281112465193   0.809390011684474   0.111052115152194   1.0000000
B2   B   0.476170556621031   0.952528079920442   0.110995147078506   1.0000000
B2   B   0.476170556621031   0.095072881947590   0.110995147078506   1.0000000
B2   B   0.476421761618533   0.237734657979470   0.111076298594506   1.0000000
B2   B   0.482493062632913   0.384953581495220   0.111142876314784   1.0000000
B2   B   0.488108705341795   0.529769555294897   0.111204940333764   1.0000000
B2   B   0.482493062632913   0.668969886384693   0.111142876314784   1.0000000
B2   B   0.476421761618533   0.810117508886071   0.111076298594506   1.0000000
B2   B   0.619262725606292   0.952783920499565   0.111004898785729   1.0000000
B2   B   0.619346619803236   0.095387656747113   0.110980953254510   1.0000000
B2   B   0.619262725606292   0.237909210353725   0.111004898785729   1.0000000
B2   B   0.618848595553354   0.380086385703079   0.111021751876679   1.0000000
B2   B   0.603789898620288   0.515585336127214   0.111092427926042   1.0000000
B2   B   0.603789898620288   0.659634967741069   0.111092427926042   1.0000000
B2   B   0.618848595553354   0.810192615097273   0.111021751876679   1.0000000
B2   B   0.761827191909437   0.952209942015444   0.110989499838804   1.0000000
B2   B   0.762556271577910   0.095553830278714   0.111047473057428   1.0000000
B2   B   0.762556271577910   0.238431134990193   0.111047473057428   1.0000000
B2   B   0.761827191909437   0.381047655140994   0.110989499838804   1.0000000
B2   B   0.757212987588282   0.522716339020720   0.111006455274592   1.0000000
B2   B   0.753616868494999   0.662523636871497   0.111033793041117   1.0000000
B2   B   0.757212987588282   0.805927053815564   0.111006455274592   1.0000000
N2   N   0.950425651128964   0.903241748041727   0.110981942217771   1.0000000
N2   N   0.952308886780671   0.047144571875579   0.110994815212470   1.0000000
N2   N   0.953776644479764   0.191110680664542   0.111042601618616   1.0000000
N2   N   0.953776644479764   0.334092945933221   0.111042601618616   1.0000000
N2   N   0.952308886780671   0.476591297023091   0.110994815212470   1.0000000
N2   N   0.950425651128964   0.618612596762231   0.110981942217771   1.0000000
N2   N   0.949671383748928   0.760550038711966   0.110994618873125   1.0000000
N2   N   0.094014733356371   0.904082695974246   0.110960179108503   1.0000000
N2   N   0.095429026474253   0.047733246610321   0.110991170436517   1.0000000
N2   N   0.097213897120154   0.191597375146369   0.110973536819482   1.0000000
N2   N   0.097893394183987   0.334661043928994   0.110989756365043   1.0000000
N2   N   0.097213897120154   0.477045215647786   0.110973536819482   1.0000000
N2   N   0.095429026474253   0.619124473538935   0.110991170436517   1.0000000
N2   N   0.094014733356371   0.761362442613130   0.110960179108503   1.0000000
N2   N   0.237423114132886   0.904426759681941   0.110972737841521   1.0000000
N2   N   0.237966113748870   0.047664368711018   0.111010279823024   1.0000000
N2   N   0.240522524885304   0.192340258801132   0.111015010335108   1.0000000
N2   N   0.242674010502036   0.336157869303845   0.110991014423338   1.0000000
N2   N   0.242674010502036   0.477944834872184   0.110991014423338   1.0000000
N2   N   0.240522524885304   0.619610959759167   0.111015010335108   1.0000000
N2   N   0.237966113748870   0.761730438712855   0.111010279823024   1.0000000
N2   N   0.380782653577106   0.904672530605652   0.111006994064325   1.0000000
N2   N   0.380782653577106   0.047538816646457   0.111006994064325   1.0000000
N2   N   0.381588736008519   0.190923775608509   0.111063909898777   1.0000000
N2   N   0.386925459539940   0.337797628261690   0.111076150262172   1.0000000
N2   N   0.390605158584320   0.481016926129156   0.111057327604901   1.0000000
N2   N   0.386925459539940   0.620556524953246   0.111076150262172   1.0000000
N2   N   0.381588736008519   0.762093654075013   0.111063909898777   1.0000000
N2   N   0.524019495612931   0.905199868083913   0.111010803451910   1.0000000
N2   N   0.523953644396110   0.047690313257559   0.110950131275131   1.0000000
N2   N   0.524019495612931   0.190248321204020   0.111010803451910   1.0000000
N2   N   0.524453695182364   0.332908626816445   0.111064754321384   1.0000000
N2   N   0.524453695182364   0.762973762040922   0.111064754321384   1.0000000
N2   N   0.666737097359438   0.905032620576013   0.110970222983430   1.0000000
N2   N   0.667125955931198   0.047939195934203   0.110990199574930   1.0000000
N2   N   0.667125955931198   0.190613742116001   0.110990199574930   1.0000000
N2   N   0.666737097359438   0.333133170458429   0.110970222983430   1.0000000
N2   N   0.660505065997915   0.474879726459193   0.111010864003362   1.0000000
N2   N   0.655556769625386   0.613492731650692   0.111065200956126   1.0000000
N2   N   0.660505065997915   0.757054033213725   0.111010864003362   1.0000000
N2   N   0.807185385994002   0.902466724796632   0.110974910360298   1.0000000
N2   N   0.810022134892435   0.047689812223967   0.111011370560062   1.0000000
N2   N   0.810436782277061   0.190931882197533   0.111065390759262   1.0000000
N2   N   0.810022134892435   0.333759304786473   0.111011370560062   1.0000000
N2   N   0.807185385994002   0.476147354871372   0.110974910360298   1.0000000
N2   N   0.804605309478739   0.617453461609190   0.111005047573041   1.0000000
N2   N   0.804605309478739   0.758580541544552   0.111005047573041   1.0000000


