data_1
_audit_creation_method   'vasp2cif'
_cell_length_a    14.93631414619966
_cell_length_b    14.936314146199727
_cell_length_c    13.341276283792837
_cell_angle_alpha    90.0
_cell_angle_beta    90.0
_cell_angle_gamma    119.99999999999984

_symmetry_space_group_name_H-M    'P 1'
loop_
_atom_site_label
_atom_site_type_symbol
_atom_site_fract_x
_atom_site_fract_y
_atom_site_fract_z
_atom_site_occupancy
N2   N   0.444444444444443   0.388888888888886   0.375000000000000   1.0000000
N2   N   0.111111844395332   0.055559806064295   0.125007096110528   1.0000000
N2   N   0.611093198754286   0.555562439451363   0.125041907940623   1.0000000
N2   N   0.444447961668963   0.055559806064295   0.125007096110528   1.0000000
N2   N   0.944437549961783   0.555554215258918   0.124996501710321   1.0000000
N2   N   0.777777777777779   0.055555555555557   0.124979793662523   1.0000000
N2   N   0.111111111111114   0.722222222222221   0.625010981119371   1.0000000
N2   N   0.444447961668963   0.722221488938004   0.624992903889471   1.0000000
N2   N   0.277770893881973   0.222240134579050   0.624958092059377   1.0000000
N2   N   0.777773527269040   0.722221488938004   0.624992903889471   1.0000000
N2   N   0.611119522768756   0.222213810564579   0.625024952491261   1.0000000
N2   N   0.944433334364301   0.222224134199322   0.625005434071936   1.0000000
N2   N   0.277779118074417   0.722216668036200   0.124996501710321   1.0000000
N2   N   0.111094287795830   0.222213810564579   0.124975047508738   1.0000000
N2   N   0.444469240697077   0.222240134579050   0.125041907940623   1.0000000
N2   N   0.611119522768756   0.722239045537506   0.124975047508738   1.0000000
N2   N   0.944437549961783   0.722216668036200   0.124996501710321   1.0000000
N2   N   0.777790799835022   0.222224134199322   0.124994565928064   1.0000000
N2   N   0.111116665297136   0.888895783371546   0.625003498289679   1.0000000
N2   N   0.444447719801160   0.888890526567245   0.624999994601409   1.0000000
N2   N   0.277770893881973   0.388864092636252   0.624958092059377   1.0000000
N2   N   0.611093198754286   0.388864092636252   0.624958092059377   1.0000000
N2   N   0.777790799835022   0.888899998969028   0.625005434071936   1.0000000
N2   N   0.944442806766084   0.388885613532168   0.624999994601409   1.0000000
N2   N   0.111111844395332   0.388885371664365   0.125007096110528   1.0000000
N2   N   0.277779118074417   0.888895783371546   0.124996501710321   1.0000000
N2   N   0.611109199134013   0.888899998969028   0.124994565928064   1.0000000
N2   N   0.444444444444443   0.388888888888886   0.124965100559741   1.0000000
N2   N   0.944442806766084   0.888890526567245   0.125000005398591   1.0000000
N2   N   0.777773527269040   0.388885371664365   0.125007096110528   1.0000000
N2   N   0.277780907569129   0.555552425764207   0.624999354342178   1.0000000
N2   N   0.111111844395332   0.055559806064295   0.624992903889471   1.0000000
N2   N   0.611093198754286   0.555562439451363   0.624958092059377   1.0000000
N2   N   0.444447961668963   0.055559806064295   0.624992903889471   1.0000000
N2   N   0.944437549961783   0.555554215258918   0.625003498289679   1.0000000
N2   N   0.111116665297136   0.555554215258918   0.124996501710321   1.0000000
N2   N   0.777777777777779   0.055555555555557   0.625020206337477   1.0000000
N2   N   0.277780907569129   0.055561815138258   0.125000645657821   1.0000000
N2   N   0.444469240697077   0.555562439451363   0.125041907940623   1.0000000
N2   N   0.777771518195078   0.555552425764207   0.125000645657821   1.0000000
N2   N   0.611109199134013   0.055542533498314   0.124994565928064   1.0000000
N2   N   0.444469240697077   0.555562439451363   0.624958092059377   1.0000000
N2   N   0.944433334364301   0.055542533498314   0.124994565928064   1.0000000
N2   N   0.277779118074417   0.722216668036200   0.625003498289679   1.0000000
N2   N   0.111094287795830   0.222213810564579   0.625024952491261   1.0000000
N2   N   0.444469240697077   0.222240134579050   0.624958092059377   1.0000000
N2   N   0.611119522768756   0.722239045537506   0.625024952491261   1.0000000
N2   N   0.944437549961783   0.722216668036200   0.625003498289679   1.0000000
N2   N   0.777790799835022   0.222224134199322   0.625005434071936   1.0000000
N2   N   0.111111111111114   0.722222222222221   0.124989018880628   1.0000000
N2   N   0.444447961668963   0.722221488938004   0.125007096110528   1.0000000
N2   N   0.277770893881973   0.222240134579050   0.125041907940623   1.0000000
N2   N   0.777773527269040   0.722221488938004   0.125007096110528   1.0000000
N2   N   0.611119522768756   0.222213810564579   0.124975047508738   1.0000000
N2   N   0.944433334364301   0.222224134199322   0.124994565928064   1.0000000
N2   N   0.111111844395332   0.388885371664365   0.624992903889471   1.0000000
N2   N   0.277779118074417   0.888895783371546   0.625003498289679   1.0000000
N2   N   0.611109199134013   0.888899998969028   0.625005434071936   1.0000000
N2   N   0.444444444444443   0.388888888888886   0.625034899440259   1.0000000
N2   N   0.944442806766084   0.888890526567245   0.624999994601409   1.0000000
N2   N   0.111116665297136   0.888895783371546   0.124996501710321   1.0000000
N2   N   0.777773527269040   0.388885371664365   0.624992903889471   1.0000000
N2   N   0.444447719801160   0.888890526567245   0.125000005398591   1.0000000
N2   N   0.277770893881973   0.388864092636252   0.125041907940623   1.0000000
N2   N   0.277780907569129   0.555552425764207   0.125000645657821   1.0000000
N2   N   0.611093198754286   0.388864092636252   0.125041907940623   1.0000000
N2   N   0.777790799835022   0.888899998969028   0.124994565928064   1.0000000
N2   N   0.944442806766084   0.388885613532168   0.125000005398591   1.0000000
N2   N   0.111116665297136   0.555554215258918   0.625003498289679   1.0000000
N2   N   0.277780907569129   0.055561815138258   0.624999354342178   1.0000000
N2   N   0.777771518195078   0.555552425764207   0.624999354342178   1.0000000
N2   N   0.611109199134013   0.055542533498314   0.625005434071936   1.0000000
N2   N   0.944433334364301   0.055542533498314   0.625005434071936   1.0000000
N2   N   0.055813685844661   0.111250381081108   0.375000000000000   1.0000000
N2   N   0.555508644254929   0.611017288509859   0.375000000000000   1.0000000
N2   N   0.388889612134456   0.112434918153235   0.375000000000000   1.0000000
N2   N   0.888583806849344   0.610958570091343   0.375000000000000   1.0000000
N2   N   0.722170478738049   0.111162854595287   0.375000000000000   1.0000000
N2   N   0.055557592132479   0.777775741200857   0.875000000000000   1.0000000
N2   N   0.388890958446585   0.777775165698905   0.875000000000000   1.0000000
N2   N   0.222222230080145   0.277777781706740   0.875000000000000   1.0000000
N2   N   0.722226349355655   0.777775380088018   0.875000000000000   1.0000000
N2   N   0.555555551626595   0.277777781706740   0.875000000000000   1.0000000
N2   N   0.888891390093529   0.277782780187064   0.875000000000000   1.0000000
N2   N   0.222283322544811   0.777808327939073   0.375000000000000   1.0000000
N2   N   0.055813685844661   0.277896638096889   0.375000000000000   1.0000000
N2   N   0.390256868655651   0.280513737311309   0.375000000000000   1.0000000
N2   N   0.555436695236447   0.777519647488674   0.375000000000000   1.0000000
N2   N   0.888464598341293   0.777406192661570   0.375000000000000   1.0000000
N2   N   0.722082952252228   0.277896638096889   0.375000000000000   1.0000000
N2   N   0.055558167634431   0.944449126081015   0.875000000000000   1.0000000
N2   N   0.388890958446585   0.944449126081015   0.875000000000000   1.0000000
N2   N   0.222217353630171   0.444440750547801   0.875000000000000   1.0000000
N2   N   0.555550127051863   0.444441730192596   0.875000000000000   1.0000000
N2   N   0.722224125857333   0.944448251714666   0.875000000000000   1.0000000
N2   N   0.888884207252313   0.444442374886744   0.875000000000000   1.0000000
N2   N   0.055927140671766   0.444391739013059   0.375000000000000   1.0000000
N2   N   0.222374763241992   0.944749526483985   0.375000000000000   1.0000000
N2   N   0.555473278447973   0.944403305890651   0.375000000000000   1.0000000
N2   N   0.390256868655651   0.443076464677678   0.375000000000000   1.0000000
N2   N   0.888930027442678   0.944403305890651   0.375000000000000   1.0000000
N2   N   0.720898415180101   0.444443721198873   0.375000000000000   1.0000000
N2   N   0.222223255719246   0.611110077614090   0.875000000000000   1.0000000
N2   N   0.055557953245318   0.111106983977681   0.875000000000000   1.0000000
N2   N   0.555555551626595   0.611111103253191   0.875000000000000   1.0000000
N2   N   0.388892582785527   0.111109936415705   0.875000000000000   1.0000000
N2   N   0.888886821894836   0.611110077614090   0.875000000000000   1.0000000
N2   N   0.055525005394262   0.611050010788525   0.375000000000000   1.0000000
N2   N   0.722224125857333   0.111109207476003   0.875000000000000   1.0000000
N2   N   0.223545306018772   0.112434918153235   0.375000000000000   1.0000000
N2   N   0.388889612134456   0.609788027314564   0.375000000000000   1.0000000
N2   N   0.720898415180101   0.609788027314564   0.375000000000000   1.0000000
N2   N   0.555436695236447   0.111250381081108   0.375000000000000   1.0000000
N2   N   0.388892582785527   0.611115979703165   0.875000000000000   1.0000000
N2   N   0.888992375857230   0.111162854595287   0.375000000000000   1.0000000
N2   N   0.222218149068378   0.777775741200857   0.875000000000000   1.0000000
N2   N   0.055557953245318   0.277784302600973   0.875000000000000   1.0000000
N2   N   0.388891603140733   0.277783206281473   0.875000000000000   1.0000000
N2   N   0.555549030732363   0.777775380088018   0.875000000000000   1.0000000
N2   N   0.888884207252313   0.777775165698905   0.875000000000000   1.0000000
N2   N   0.722226349355655   0.277784302600973   0.875000000000000   1.0000000
N2   N   0.055525005394262   0.777808327939073   0.375000000000000   1.0000000
N2   N   0.388941594320269   0.777406192661570   0.375000000000000   1.0000000
N2   N   0.222316044823477   0.277824689078406   0.375000000000000   1.0000000
N2   N   0.722082952252228   0.777519647488674   0.375000000000000   1.0000000
N2   N   0.555508644254929   0.277824689078406   0.375000000000000   1.0000000
N2   N   0.888930027442678   0.277860054885362   0.375000000000000   1.0000000
N2   N   0.055558167634431   0.444442374886744   0.875000000000000   1.0000000
N2   N   0.222223255719246   0.944446511438492   0.875000000000000   1.0000000
N2   N   0.555550553146272   0.944441943239800   0.875000000000000   1.0000000
N2   N   0.388891603140733   0.444441730192596   0.875000000000000   1.0000000
N2   N   0.888891390093529   0.944441943239800   0.875000000000000   1.0000000
N2   N   0.055927140671766   0.944868734992036   0.375000000000000   1.0000000
N2   N   0.722223396917630   0.444440750547801   0.875000000000000   1.0000000
N2   N   0.388941594320269   0.944868734992036   0.375000000000000   1.0000000
N2   N   0.223545306018772   0.444443721198873   0.375000000000000   1.0000000
N2   N   0.222374763241992   0.610958570091343   0.375000000000000   1.0000000
N2   N   0.552819596022027   0.443076464677678   0.375000000000000   1.0000000
N2   N   0.722170478738049   0.944340957476098   0.375000000000000   1.0000000
N2   N   0.888464598341293   0.444391739013059   0.375000000000000   1.0000000
N2   N   0.055557592132479   0.611115184264958   0.875000000000000   1.0000000
N2   N   0.222217353630171   0.111109936415705   0.875000000000000   1.0000000
N2   N   0.722223396917630   0.611115979703165   0.875000000000000   1.0000000
N2   N   0.555549030732363   0.111106983977681   0.875000000000000   1.0000000
N2   N   0.888885081618663   0.111109207476003   0.875000000000000   1.0000000
B2   B   0.111927444849910   0.056293897874229   0.375000000000000   1.0000000
B2   B   0.609368185109037   0.554308712688797   0.375000000000000   1.0000000
B2   B   0.444366453024319   0.056293897874229   0.375000000000000   1.0000000
B2   B   0.944245957050047   0.555545025561690   0.375000000000000   1.0000000
B2   B   0.777777777777779   0.055555555555557   0.375000000000000   1.0000000
B2   B   0.111111111111114   0.722222222222221   0.875000000000000   1.0000000
B2   B   0.444447658875000   0.722219811274668   0.875000000000000   1.0000000
B2   B   0.277756355329097   0.222260792444282   0.875000000000000   1.0000000
B2   B   0.777772152399668   0.722219811274668   0.875000000000000   1.0000000
B2   B   0.611078828080566   0.222254505252769   0.875000000000000   1.0000000
B2   B   0.944416033554778   0.222251985238749   0.875000000000000   1.0000000
B2   B   0.277788307771646   0.722034264821692   0.375000000000000   1.0000000
B2   B   0.111438107237899   0.222385720285614   0.375000000000000   1.0000000
B2   B   0.444940527579760   0.223965148224299   0.375000000000000   1.0000000
B2   B   0.610947613047722   0.721895226095437   0.375000000000000   1.0000000
B2   B   0.944245957050047   0.722034264821692   0.375000000000000   1.0000000
B2   B   0.777805918136927   0.222377679164641   0.375000000000000   1.0000000
B2   B   0.111170994803483   0.888922047209294   0.875000000000000   1.0000000
B2   B   0.444506326124657   0.888919829728992   0.875000000000000   1.0000000
B2   B   0.277756355329097   0.388828896218143   0.875000000000000   1.0000000
B2   B   0.611072540889053   0.388828896218143   0.875000000000000   1.0000000
B2   B   0.777835951683971   0.888917299778551   0.875000000000000   1.0000000
B2   B   0.944413503604336   0.388827007208672   0.875000000000000   1.0000000
B2   B   0.111927444849910   0.388966880309009   0.375000000000000   1.0000000
B2   B   0.277788307771646   0.889087376283282   0.375000000000000   1.0000000
B2   B   0.610955654168695   0.888761572305615   0.375000000000000   1.0000000
B2   B   0.944446119716637   0.888887213616692   0.375000000000000   1.0000000
B2   B   0.777039435459107   0.388966880309009   0.375000000000000   1.0000000
B2   B   0.277752346051873   0.555580987281462   0.875000000000000   1.0000000
B2   B   0.111113522058667   0.055561180933668   0.875000000000000   1.0000000
B2   B   0.611072540889053   0.555576978004239   0.875000000000000   1.0000000
B2   B   0.444447658875000   0.055561180933668   0.875000000000000   1.0000000
B2   B   0.944411286124035   0.555582280927518   0.875000000000000   1.0000000
B2   B   0.111299068511643   0.555545025561690   0.375000000000000   1.0000000
B2   B   0.777777777777779   0.055555555555557   0.875000000000000   1.0000000
B2   B   0.277971617039669   0.055943234079338   0.375000000000000   1.0000000
B2   B   0.444940527579760   0.554308712688797   0.375000000000000   1.0000000
B2   B   0.777390099253997   0.555361716293666   0.375000000000000   1.0000000
B2   B   0.610955654168695   0.055527415196409   0.375000000000000   1.0000000
B2   B   0.444504437115185   0.555576978004239   0.875000000000000   1.0000000
B2   B   0.944571761027714   0.055527415196409   0.375000000000000   1.0000000
B2   B   0.277751052405817   0.722162338529852   0.875000000000000   1.0000000
B2   B   0.111175677172209   0.222254505252769   0.875000000000000   1.0000000
B2   B   0.444504437115185   0.222260792444282   0.875000000000000   1.0000000
B2   B   0.611078828080566   0.722157656161126   0.875000000000000   1.0000000
B2   B   0.944411286124035   0.722162338529852   0.875000000000000   1.0000000
B2   B   0.777835951683971   0.222251985238749   0.875000000000000   1.0000000
B2   B   0.111111111111114   0.722222222222221   0.375000000000000   1.0000000
B2   B   0.444366453024319   0.721405888483426   0.375000000000000   1.0000000
B2   B   0.279024620644539   0.223965148224299   0.375000000000000   1.0000000
B2   B   0.777039435459107   0.721405888483426   0.375000000000000   1.0000000
B2   B   0.610947613047722   0.222385720285614   0.375000000000000   1.0000000
B2   B   0.944571761027714   0.222377679164641   0.375000000000000   1.0000000
B2   B   0.111113522058667   0.388885674458328   0.875000000000000   1.0000000
B2   B   0.277751052405817   0.888922047209294   0.875000000000000   1.0000000
B2   B   0.611081348094587   0.888917299778551   0.875000000000000   1.0000000
B2   B   0.444444444444443   0.388888888888886   0.875000000000000   1.0000000
B2   B   0.944413503604336   0.888919829728992   0.875000000000000   1.0000000
B2   B   0.111299068511643   0.889087376283282   0.375000000000000   1.0000000
B2   B   0.777772152399668   0.388885674458328   0.875000000000000   1.0000000
B2   B   0.444441093900056   0.888887213616692   0.375000000000000   1.0000000
B2   B   0.279024620644539   0.388392805753569   0.375000000000000   1.0000000
B2   B   0.277971617039669   0.555361716293666   0.375000000000000   1.0000000
B2   B   0.609368185109037   0.388392805753569   0.375000000000000   1.0000000
B2   B   0.777805918136927   0.888761572305615   0.375000000000000   1.0000000
B2   B   0.944446119716637   0.388892239433273   0.375000000000000   1.0000000
B2   B   0.111170994803483   0.555582280927518   0.875000000000000   1.0000000
B2   B   0.277752346051873   0.055504692103747   0.875000000000000   1.0000000
B2   B   0.777828641229589   0.555580987281462   0.875000000000000   1.0000000
B2   B   0.611081348094587   0.055497381649364   0.875000000000000   1.0000000
B2   B   0.944416033554778   0.055497381649364   0.875000000000000   1.0000000
B2   B   0.055575989937099   0.111084007445708   0.125010256960794   1.0000000
B2   B   0.555558666919691   0.611117333839381   0.125016529150833   1.0000000
B2   B   0.388934435728101   0.111103582876683   0.125032961961661   1.0000000
B2   B   0.888874629727223   0.611103981530282   0.125007732745895   1.0000000
B2   B   0.722255860356305   0.111077472977031   0.125006920635253   1.0000000
B2   B   0.055583510192415   0.777749823140920   0.624989672892291   1.0000000
B2   B   0.388930673452191   0.777747888466564   0.624986311299201   1.0000000
B2   B   0.222215999493954   0.277774666413645   0.624983470849167   1.0000000
B2   B   0.722249325887628   0.777757343396236   0.624989743039206   1.0000000
B2   B   0.555558666919691   0.277774666413645   0.624983470849167   1.0000000
B2   B   0.888883192150273   0.277766384300553   0.624992566416266   1.0000000
B2   B   0.222166312948505   0.777749823140920   0.125010327107709   1.0000000
B2   B   0.055575989937099   0.277825315824727   0.125010256960794   1.0000000
B2   B   0.388945689683913   0.277891379367833   0.125177591466783   1.0000000
B2   B   0.555508017508608   0.777757343396236   0.125010256960794   1.0000000
B2   B   0.888817215014367   0.777747888466564   0.125013688700799   1.0000000
B2   B   0.722249325887628   0.277825315824727   0.125010256960794   1.0000000
B2   B   0.055585444866772   0.944516118318962   0.624986311299201   1.0000000
B2   B   0.388930673452191   0.944516118318962   0.624986311299201   1.0000000
B2   B   0.222169147148575   0.444398897605227   0.624967038038339   1.0000000
B2   B   0.555441953965503   0.444387643649416   0.624822408533217   1.0000000
B2   B   0.722255860356305   0.944511720712609   0.624993079364748   1.0000000
B2   B   0.888817215014367   0.444402659881138   0.624986311299201   1.0000000
B2   B   0.055585444866772   0.444402659881138   0.125013688700799   1.0000000
B2   B   0.222229351803053   0.944458703606106   0.125007732745895   1.0000000
B2   B   0.555566949032783   0.944450141183056   0.125007433583735   1.0000000
B2   B   0.388945689683913   0.444387643649416   0.125177591466783   1.0000000
B2   B   0.888883192150273   0.944450141183056   0.125007433583735   1.0000000
B2   B   0.722229750456652   0.444398897605227   0.125032961961661   1.0000000
B2   B   0.222229351803053   0.611103981530282   0.624992267254105   1.0000000
B2   B   0.055575989937099   0.111084007445708   0.624989743039206   1.0000000
B2   B   0.555558666919691   0.611117333839381   0.624983470849167   1.0000000
B2   B   0.388934435728101   0.111103582876683   0.624967038038339   1.0000000
B2   B   0.888874629727223   0.611103981530282   0.624992267254105   1.0000000
B2   B   0.055583510192415   0.611167020384830   0.125010327107709   1.0000000
B2   B   0.722255860356305   0.111077472977031   0.624993079364748   1.0000000
B2   B   0.222169147148575   0.111103582876683   0.125032961961661   1.0000000
B2   B   0.388934435728101   0.611164186184761   0.125032961961661   1.0000000
B2   B   0.722229750456652   0.611164186184761   0.125032961961661   1.0000000
B2   B   0.555508017508608   0.111084007445708   0.125010256960794   1.0000000
B2   B   0.388934435728101   0.611164186184761   0.624967038038339   1.0000000
B2   B   0.888821612620719   0.111077472977031   0.125006920635253   1.0000000
B2   B   0.222166312948505   0.777749823140920   0.624989672892291   1.0000000
B2   B   0.055575989937099   0.277825315824727   0.624989743039206   1.0000000
B2   B   0.388945689683913   0.277891379367833   0.624822408533217   1.0000000
B2   B   0.555508017508608   0.777757343396236   0.624989743039206   1.0000000
B2   B   0.888817215014367   0.777747888466564   0.624986311299201   1.0000000
B2   B   0.722249325887628   0.277825315824727   0.624989743039206   1.0000000
B2   B   0.055583510192415   0.777749823140920   0.125010327107709   1.0000000
B2   B   0.388930673452191   0.777747888466564   0.125013688700799   1.0000000
B2   B   0.222215999493954   0.277774666413645   0.125016529150833   1.0000000
B2   B   0.722249325887628   0.777757343396236   0.125010256960794   1.0000000
B2   B   0.555558666919691   0.277774666413645   0.125016529150833   1.0000000
B2   B   0.888883192150273   0.277766384300553   0.125007433583735   1.0000000
B2   B   0.055585444866772   0.444402659881138   0.624986311299201   1.0000000
B2   B   0.222229351803053   0.944458703606106   0.624992267254105   1.0000000
B2   B   0.555566949032783   0.944450141183056   0.624992566416266   1.0000000
B2   B   0.388945689683913   0.444387643649416   0.624822408533217   1.0000000
B2   B   0.888883192150273   0.944450141183056   0.624992566416266   1.0000000
B2   B   0.055585444866772   0.944516118318962   0.125013688700799   1.0000000
B2   B   0.722229750456652   0.444398897605227   0.624967038038339   1.0000000
B2   B   0.388930673452191   0.944516118318962   0.125013688700799   1.0000000
B2   B   0.222169147148575   0.444398897605227   0.125032961961661   1.0000000
B2   B   0.222229351803053   0.611103981530282   0.125007732745895   1.0000000
B2   B   0.555441953965503   0.444387643649416   0.125177591466783   1.0000000
B2   B   0.722255860356305   0.944511720712609   0.125006920635253   1.0000000
B2   B   0.888817215014367   0.444402659881138   0.125013688700799   1.0000000
B2   B   0.055583510192415   0.611167020384830   0.624989672892291   1.0000000
B2   B   0.222169147148575   0.111103582876683   0.624967038038339   1.0000000
B2   B   0.722229750456652   0.611164186184761   0.624967038038339   1.0000000
B2   B   0.555508017508608   0.111084007445708   0.624989743039206   1.0000000
B2   B   0.888821612620719   0.111077472977031   0.624993079364748   1.0000000


