data_1
_audit_creation_method   'vasp2cif'
_cell_length_a    17.52789999999977
_cell_length_b    17.52789999999977
_cell_length_c    15.0
_cell_angle_alpha    90.0
_cell_angle_beta    90.0
_cell_angle_gamma    119.99999999999916

_symmetry_space_group_name_H-M    'P 1'
loop_
_atom_site_label
_atom_site_type_symbol
_atom_site_fract_x
_atom_site_fract_y
_atom_site_fract_z
_atom_site_occupancy
B2   B   0.903300044663167   0.950213541591301   0.106940625974263   1.0000000
B2   B   0.904429008478467   0.093298395459876   0.108696869765847   1.0000000
B2   B   0.905165941569815   0.236215140001420   0.108713314036729   1.0000000
B2   B   0.905392573648394   0.379156843994598   0.107504424615221   1.0000000
B2   B   0.905964883208500   0.522549505966890   0.105110730481741   1.0000000
B2   B   0.905737847955907   0.665980074791563   0.102779206175469   1.0000000
B2   B   0.904563601178823   0.808796057550627   0.103711521075958   1.0000000
B2   B   0.047476368393934   0.952548431405152   0.105669090432555   1.0000000
B2   B   0.048480059976617   0.095718829846721   0.106769627358344   1.0000000
B2   B   0.048769605224734   0.237945706759470   0.107746696208038   1.0000000
B2   B   0.048253952511686   0.380235197107419   0.107501218557661   1.0000000
B2   B   0.047364811552413   0.523186885783754   0.107116454557932   1.0000000
B2   B   0.046967155298914   0.666559745752358   0.106589524565807   1.0000000
B2   B   0.047219227920680   0.809680854202507   0.105481944502146   1.0000000
B2   B   0.190118468061311   0.953055137831416   0.107643437304377   1.0000000
B2   B   0.191130903516381   0.096318402860954   0.106739685423166   1.0000000
B2   B   0.194196393946637   0.241679828792556   0.107782185418689   1.0000000
B2   B   0.192330135974999   0.382445294681519   0.108767926545217   1.0000000
B2   B   0.189401661016029   0.524478895487858   0.107781582177766   1.0000000
B2   B   0.187874670074453   0.667268655320545   0.108581494848158   1.0000000
B2   B   0.189259710756657   0.810188574198217   0.108836652185091   1.0000000
B2   B   0.332528234961238   0.952862483450054   0.109672124438871   1.0000000
B2   B   0.333519376991777   0.095662652750061   0.109349473374082   1.0000000
B2   B   0.334607192751671   0.239143003049862   0.110213936828437   1.0000000
B2   B   0.341719526114663   0.389685237685993   0.114369100758705   1.0000000
B2   B   0.332158702793810   0.527655858921434   0.110267714103974   1.0000000
B2   B   0.328140528730012   0.668853440982516   0.106534091520373   1.0000000
B2   B   0.331287748613582   0.810621904720003   0.109601876426104   1.0000000
B2   B   0.475081671508154   0.951344303455191   0.110424325007440   1.0000000
B2   B   0.476069841358993   0.093981526290827   0.110347084647419   1.0000000
B2   B   0.476923166633698   0.236288886104525   0.116699892678658   1.0000000
B2   B   0.474586541423733   0.373565115348791   0.140319599705501   1.0000000
B2   B   0.486759060755569   0.579294919005743   0.120331620733104   1.0000000
B2   B   0.466778737538342   0.664252538880481   0.107921632685698   1.0000000
B2   B   0.473284093706488   0.808304687808362   0.109435509504896   1.0000000
B2   B   0.617425079192752   0.949058124314700   0.111154077180237   1.0000000
B2   B   0.618759114702410   0.092676846664901   0.110406913995110   1.0000000
B2   B   0.619624367004509   0.235497250321637   0.112572763028482   1.0000000
B2   B   0.620871557916970   0.377869222781221   0.122818951918685   1.0000000
B2   B   0.630964640193080   0.524613350342569   0.131824178520948   1.0000000
B2   B   0.615619490493047   0.656069345888862   0.119296053771754   1.0000000
B2   B   0.614639945808494   0.803811696537538   0.112500132702119   1.0000000
B2   B   0.759829438765880   0.948532261755925   0.110695580204360   1.0000000
B2   B   0.761397727241509   0.092340504849200   0.110271811065861   1.0000000
B2   B   0.762304807075476   0.235536428662415   0.109716775906771   1.0000000
B2   B   0.763090425807886   0.378613777147955   0.109537015149765   1.0000000
B2   B   0.765324903759319   0.522124221156798   0.107963415422242   1.0000000
B2   B   0.764623085768012   0.665567978091534   0.104812591525216   1.0000000
B2   B   0.758092020653253   0.804184949148729   0.109419734111470   1.0000000
N2   N   0.951760151393947   0.903779214563161   0.105006278234913   1.0000000
N2   N   0.952267340669456   0.046160000230014   0.107349512630647   1.0000000
N2   N   0.953099519945070   0.188999079706374   0.108421579895931   1.0000000
N2   N   0.953036985081525   0.331701480417739   0.107852767652289   1.0000000
N2   N   0.952617740863086   0.474574645833560   0.106474229373624   1.0000000
N2   N   0.952227479369480   0.617922935819083   0.104382346850394   1.0000000
N2   N   0.951877647652545   0.761165176382887   0.103030157433710   1.0000000
N2   N   0.094839435545462   0.905026914320014   0.106250796488928   1.0000000
N2   N   0.095829525357981   0.048171633499257   0.106210108657965   1.0000000
N2   N   0.098018414168021   0.192129662493545   0.107272771552642   1.0000000
N2   N   0.097081978305620   0.333537820246975   0.107697431042359   1.0000000
N2   N   0.094934955481879   0.475555730592970   0.107269926818529   1.0000000
N2   N   0.093553509349098   0.618517998980798   0.107855148208080   1.0000000
N2   N   0.094226382233043   0.761887745991815   0.107299951200345   1.0000000
N2   N   0.237372535131643   0.905425584384591   0.108993475520605   1.0000000
N2   N   0.238407226075145   0.048628975327202   0.107614900460042   1.0000000
N2   N   0.240056320807684   0.192535637455052   0.106991255968325   1.0000000
N2   N   0.244979553438825   0.339449649482322   0.109551163632308   1.0000000
N2   N   0.238416722767120   0.477458837715498   0.109223291125198   1.0000000
N2   N   0.234464221522511   0.619421855087316   0.107799335969027   1.0000000
N2   N   0.236296800495775   0.762447687495548   0.109482066905487   1.0000000
N2   N   0.379917301918963   0.905269286275201   0.110269472623142   1.0000000
N2   N   0.380883074665485   0.047996408732550   0.109668586779423   1.0000000
N2   N   0.382004220125916   0.191421034129400   0.111770294166597   1.0000000
N2   N   0.384036606956390   0.336200220395947   0.116782625704169   1.0000000
N2   N   0.393808050446593   0.491964610190573   0.117044277907131   1.0000000
N2   N   0.374105195077794   0.621273512901547   0.104905495463462   1.0000000
N2   N   0.378369322848348   0.762941080962703   0.108370426342290   1.0000000
N2   N   0.522231429321135   0.902984389269545   0.110762570349822   1.0000000
N2   N   0.523503597499857   0.046292214312054   0.110212982812866   1.0000000
N2   N   0.524379058392381   0.189183007680454   0.112278723237182   1.0000000
N2   N   0.525351298174996   0.331536215214642   0.128965278536487   1.0000000
N2   N   0.519314391933996   0.758198054176455   0.109572040963601   1.0000000
N2   N   0.663872339117254   0.899393313993432   0.111911832497211   1.0000000
N2   N   0.665930469331993   0.044435094217574   0.110652025015633   1.0000000
N2   N   0.666942294638891   0.188008741534371   0.110514263854728   1.0000000
N2   N   0.667612624115279   0.330934368541521   0.114384746235227   1.0000000
N2   N   0.670404644083405   0.473460647868468   0.120071372988306   1.0000000
N2   N   0.669049109050769   0.615859065083298   0.112959938583661   1.0000000
N2   N   0.659439871698680   0.751739849955858   0.114733897092314   1.0000000
N2   N   0.806564169071368   0.900044675033735   0.109083905824923   1.0000000
N2   N   0.808548664851261   0.044214332582764   0.110077016506125   1.0000000
N2   N   0.809686331188470   0.187860628104694   0.109631715011447   1.0000000
N2   N   0.810102649081387   0.330974047995664   0.108604412033386   1.0000000
N2   N   0.810984498532283   0.473979448968567   0.106008899953129   1.0000000
N2   N   0.810563724915458   0.617151125288577   0.102996048628648   1.0000000
N2   N   0.808510242552574   0.759654668834933   0.104557592415491   1.0000000
Al2   Al   0.515385688679312   0.498034752410243   0.205183027403765   1.0000000


