data_1
_audit_creation_method   'vasp2cif'
_cell_length_a    17.52789999999977
_cell_length_b    17.52789999999977
_cell_length_c    15.0
_cell_angle_alpha    90.0
_cell_angle_beta    90.0
_cell_angle_gamma    119.99999999999916

_symmetry_space_group_name_H-M    'P 1'
loop_
_atom_site_label
_atom_site_type_symbol
_atom_site_fract_x
_atom_site_fract_y
_atom_site_fract_z
_atom_site_occupancy
B2   B   0.905744211361543   0.952787221204424   0.108147559707127   1.0000000
B2   B   0.904667487643952   0.095359264322214   0.109419371714612   1.0000000
B2   B   0.904214040555073   0.238253383813018   0.112937161294437   1.0000000
B2   B   0.904005162449764   0.381034293712790   0.116629416390829   1.0000000
B2   B   0.904413163180806   0.523725576746508   0.119383625796792   1.0000000
B2   B   0.906090568913936   0.666774305259188   0.118630548201321   1.0000000
B2   B   0.906817023860492   0.810297757298177   0.111367316029548   1.0000000
B2   B   0.048254521979909   0.951676920091426   0.108574898127530   1.0000000
B2   B   0.047180383503040   0.094234817099925   0.109810156748123   1.0000000
B2   B   0.046920465472178   0.237385409253627   0.114366757756670   1.0000000
B2   B   0.047264507928907   0.380405448474211   0.117868047644674   1.0000000
B2   B   0.048127854319510   0.523127328262486   0.117619083135851   1.0000000
B2   B   0.048752829398651   0.665941369562620   0.115354056144073   1.0000000
B2   B   0.048820057426266   0.808893422204068   0.111408085581130   1.0000000
B2   B   0.191067508891734   0.951127974973066   0.107233577456165   1.0000000
B2   B   0.189639632707633   0.093125511364024   0.107850024311691   1.0000000
B2   B   0.188612075864717   0.235520176760144   0.112577069050944   1.0000000
B2   B   0.189786938759390   0.379372566383524   0.120076290716532   1.0000000
B2   B   0.191931909697845   0.522438752077377   0.118570841947743   1.0000000
B2   B   0.192034546348160   0.665331971590928   0.113728842920444   1.0000000
B2   B   0.191639983112522   0.808307376837216   0.109740871377918   1.0000000
B2   B   0.334054648850424   0.951245195346813   0.105816705892598   1.0000000
B2   B   0.333254136233055   0.093940006969828   0.103046388328476   1.0000000
B2   B   0.330589888978208   0.234326248858690   0.103332534264317   1.0000000
B2   B   0.329707373137677   0.376318410789423   0.115581440887530   1.0000000
B2   B   0.336173347525235   0.520816842661550   0.121749385901970   1.0000000
B2   B   0.335599320387003   0.664361000799897   0.111490787612716   1.0000000
B2   B   0.334654819420089   0.807945431757599   0.107964862218589   1.0000000
B2   B   0.476870070874935   0.951875301881838   0.105568290403497   1.0000000
B2   B   0.476300775578550   0.095613208071726   0.104017971854372   1.0000000
B2   B   0.475508724577956   0.239446595728555   0.098278731643127   1.0000000
B2   B   0.468911521303041   0.378819287469739   0.082470256740761   1.0000000
B2   B   0.479150641896939   0.663780877951752   0.102447228209077   1.0000000
B2   B   0.477556882712289   0.808061337841957   0.105016669449579   1.0000000
B2   B   0.619583215955636   0.952747272816752   0.104992347041237   1.0000000
B2   B   0.618979447706685   0.096024192451503   0.106366075245146   1.0000000
B2   B   0.618316097567811   0.239711099407936   0.106886267162939   1.0000000
B2   B   0.616486335234869   0.383600458366079   0.112050406632601   1.0000000
B2   B   0.621335644699865   0.531219931311608   0.142136044371644   1.0000000
B2   B   0.623663986002647   0.670286360677783   0.108606016343367   1.0000000
B2   B   0.620595081467193   0.810190489446508   0.103355891299654   1.0000000
B2   B   0.762618026083374   0.953086761972734   0.106225699720903   1.0000000
B2   B   0.761779636724348   0.095827801730683   0.108040085575892   1.0000000
B2   B   0.761194087955509   0.238854556620080   0.111164058724780   1.0000000
B2   B   0.760346707299744   0.381730861272671   0.116726222759190   1.0000000
B2   B   0.760625696206838   0.524564912614859   0.125592499696871   1.0000000
B2   B   0.765707167482418   0.669448435131113   0.119509480676221   1.0000000
B2   B   0.764459640290734   0.811343630331881   0.108641360060935   1.0000000
N2   N   0.953482667374359   0.905051801349596   0.108773772602872   1.0000000
N2   N   0.952379421593426   0.047611004789860   0.108784101927118   1.0000000
N2   N   0.951825412880175   0.190434761688653   0.112074778690166   1.0000000
N2   N   0.951823234172187   0.333389892620034   0.115906629261777   1.0000000
N2   N   0.952332819663080   0.476151005529339   0.118225675401493   1.0000000
N2   N   0.953310660650882   0.618877391354684   0.118460200372466   1.0000000
N2   N   0.953727013091825   0.761875898217148   0.113804527871355   1.0000000
N2   N   0.095977985944306   0.903958593369947   0.108741180981444   1.0000000
N2   N   0.094866679775837   0.046455230122796   0.108651025491974   1.0000000
N2   N   0.093953117744051   0.189048292298161   0.112314881265181   1.0000000
N2   N   0.094573715492707   0.332485413567972   0.118241246724544   1.0000000
N2   N   0.096048196811749   0.475556819668165   0.118538642087081   1.0000000
N2   N   0.096469511775785   0.618277902641046   0.115803567556399   1.0000000
N2   N   0.096388414879680   0.761083948480273   0.112050965937003   1.0000000
N2   N   0.238868839558681   0.903558050353945   0.107253203453466   1.0000000
N2   N   0.238088163194064   0.046236563552675   0.105850818768946   1.0000000
N2   N   0.236136517754142   0.187731335241656   0.108987712581467   1.0000000
N2   N   0.235486117463348   0.330128844648960   0.117190208246852   1.0000000
N2   N   0.239737857882473   0.474609815780007   0.121585875795341   1.0000000
N2   N   0.239991478235080   0.617639098028852   0.115264237054125   1.0000000
N2   N   0.239380089692880   0.760574816312648   0.110236144591105   1.0000000
N2   N   0.381714700140989   0.903523947071120   0.106278737914044   1.0000000
N2   N   0.381145857581408   0.046714604348912   0.103868163211813   1.0000000
N2   N   0.380184589940006   0.189217665802674   0.099510664358530   1.0000000
N2   N   0.376302762123228   0.328674004828838   0.099899954408330   1.0000000
N2   N   0.381026940298769   0.469825432842101   0.128331233390689   1.0000000
N2   N   0.383700163414785   0.616231470447164   0.111837783824674   1.0000000
N2   N   0.382337295032661   0.759974187375286   0.107485687571700   1.0000000
N2   N   0.524432290948303   0.903946470039031   0.105057203595497   1.0000000
N2   N   0.523856507175723   0.047681358151553   0.105327934626052   1.0000000
N2   N   0.523175359586217   0.191560291650220   0.102984914015330   1.0000000
N2   N   0.521961956775225   0.336270677155386   0.093258226651753   1.0000000
N2   N   0.530134221964262   0.618910657978775   0.096201292736132   1.0000000
N2   N   0.525359981735347   0.760223442176464   0.102618651729089   1.0000000
N2   N   0.667478040241101   0.905415692106194   0.104291608374842   1.0000000
N2   N   0.666613224234215   0.048199134349824   0.106358151339459   1.0000000
N2   N   0.665973710495287   0.191619156848586   0.107887638711636   1.0000000
N2   N   0.664738216710509   0.335327651857433   0.111816920440479   1.0000000
N2   N   0.663816471041547   0.478122540114116   0.130938810980295   1.0000000
N2   N   0.671410538540098   0.623808449833935   0.124476160879278   1.0000000
N2   N   0.669814685139560   0.764483793716888   0.106071448704325   1.0000000
N2   N   0.810929204017731   0.906009971475661   0.107250806725387   1.0000000
N2   N   0.809584517034843   0.048200851173514   0.107651949920014   1.0000000
N2   N   0.808965443066275   0.191081356840313   0.110518015295727   1.0000000
N2   N   0.808421318590801   0.334058465692847   0.115058785700924   1.0000000
N2   N   0.808483835728804   0.476856781683144   0.121029504210361   1.0000000
N2   N   0.810856629251384   0.619894874664754   0.123504312130345   1.0000000
N2   N   0.812219038082855   0.763787230798511   0.111902468222623   1.0000000
Si2   Si   0.494399443858232   0.505609059265846   0.112412109216354   1.0000000


