data_1
_audit_creation_method   'vasp2cif'
_cell_length_a    17.52789999999977
_cell_length_b    17.52789999999977
_cell_length_c    15.0
_cell_angle_alpha    90.0
_cell_angle_beta    90.0
_cell_angle_gamma    119.99999999999916

_symmetry_space_group_name_H-M    'P 1'
loop_
_atom_site_label
_atom_site_type_symbol
_atom_site_fract_x
_atom_site_fract_y
_atom_site_fract_z
_atom_site_occupancy
B2   B   0.902308533509732   0.949785546554150   0.110735621234428   1.0000000
B2   B   0.903881915702647   0.093670220547473   0.110539497047742   1.0000000
B2   B   0.905463934331257   0.237435493084530   0.110455743600897   1.0000000
B2   B   0.908022229971186   0.381410282917345   0.110840912716655   1.0000000
B2   B   0.909162641863481   0.525272829642955   0.111485666738886   1.0000000
B2   B   0.905786825117934   0.667479047948013   0.111299567970255   1.0000000
B2   B   0.901412614821594   0.806500506067746   0.110992263202019   1.0000000
B2   B   0.045914002780489   0.951827081228312   0.110860194700673   1.0000000
B2   B   0.046476204339054   0.094804044861023   0.110902946611954   1.0000000
B2   B   0.047211905444100   0.237976209658579   0.110672168456015   1.0000000
B2   B   0.048460627859071   0.381705611471174   0.110391953164069   1.0000000
B2   B   0.049511912938512   0.525628700050242   0.110454150621674   1.0000000
B2   B   0.048777169423390   0.668875285762025   0.110761001192979   1.0000000
B2   B   0.047694017004846   0.811013927087624   0.110854344436831   1.0000000
B2   B   0.190983884894409   0.955186581079637   0.110440297318139   1.0000000
B2   B   0.189647696893650   0.096360796384379   0.111169094920795   1.0000000
B2   B   0.190055619366268   0.239826744921224   0.112343826362570   1.0000000
B2   B   0.189444572551623   0.382633110254921   0.111694748374056   1.0000000
B2   B   0.190107129954352   0.526130687965312   0.110679557605926   1.0000000
B2   B   0.190437396254501   0.669567142198531   0.110178840705696   1.0000000
B2   B   0.190951036807853   0.812578116315719   0.110294638993250   1.0000000
B2   B   0.334173783956299   0.956198141053329   0.109954702807678   1.0000000
B2   B   0.334903498726343   0.099679410100010   0.109877087275464   1.0000000
B2   B   0.332551445318527   0.240405876148263   0.114062600933905   1.0000000
B2   B   0.333499266284149   0.386623979051495   0.115460536793468   1.0000000
B2   B   0.330961296150116   0.528393174380722   0.112141331187691   1.0000000
B2   B   0.331505207464629   0.670256526678015   0.110893732022111   1.0000000
B2   B   0.333245899156051   0.813046609406918   0.110335412094042   1.0000000
B2   B   0.476484107200869   0.955311988529235   0.110286766179472   1.0000000
B2   B   0.477828950078297   0.100189964458226   0.109696400375785   1.0000000
B2   B   0.478617618824200   0.246172097866505   0.109531857458734   1.0000000
B2   B   0.471752937215728   0.668326503072577   0.112182212422605   1.0000000
B2   B   0.475203072337602   0.811549649100775   0.110976734344120   1.0000000
B2   B   0.618475558397676   0.951605583137703   0.110740279173821   1.0000000
B2   B   0.619579565963492   0.095179901968919   0.110351804029401   1.0000000
B2   B   0.621722975959804   0.238418968932699   0.110137973588180   1.0000000
B2   B   0.632709850710800   0.383051751946174   0.110390232886044   1.0000000
B2   B   0.616919486394821   0.506666255114775   0.110006085478452   1.0000000
B2   B   0.612147944276224   0.658206567083438   0.111620866517243   1.0000000
B2   B   0.616832026502342   0.806852357494018   0.111276866983121   1.0000000
B2   B   0.760277442874198   0.949745515179017   0.110764251609905   1.0000000
B2   B   0.761809520950498   0.093841407972045   0.110623553744151   1.0000000
B2   B   0.763912252450912   0.237637689456496   0.110768749614421   1.0000000
B2   B   0.768633312976403   0.381563018951349   0.111421504807306   1.0000000
B2   B   0.769358442861416   0.524955129965555   0.111646776253532   1.0000000
B2   B   0.755919698284364   0.659298209804555   0.110959254013743   1.0000000
B2   B   0.757667333874422   0.804379307428269   0.110984197055505   1.0000000
N2   N   0.949759767129878   0.902267320326534   0.110862601516115   1.0000000
N2   N   0.950870021486201   0.045669729835629   0.110623414580407   1.0000000
N2   N   0.952139900312129   0.189319153614889   0.110384321565226   1.0000000
N2   N   0.953894810429528   0.332998076186112   0.110393848512206   1.0000000
N2   N   0.955130521507927   0.476888072874149   0.110863912069365   1.0000000
N2   N   0.953833571987761   0.620339464580860   0.111324130174712   1.0000000
N2   N   0.951887026796936   0.762037934758532   0.111077323063073   1.0000000
N2   N   0.095292563578941   0.906261101536342   0.110757703689694   1.0000000
N2   N   0.094224301154253   0.047539121699142   0.110920102402223   1.0000000
N2   N   0.094853118687170   0.190754382444087   0.111154861164089   1.0000000
N2   N   0.095112065464415   0.333672144898143   0.110594519106627   1.0000000
N2   N   0.095911146458520   0.477299598485814   0.110345986620790   1.0000000
N2   N   0.095885402716502   0.621013945449528   0.110324283209390   1.0000000
N2   N   0.095785315072429   0.764106890930834   0.110631572072525   1.0000000
N2   N   0.238961742331750   0.908139409055381   0.110186691720349   1.0000000
N2   N   0.239338244900363   0.050985969255742   0.110468215023690   1.0000000
N2   N   0.237183756371427   0.191906489978241   0.112330445875513   1.0000000
N2   N   0.237793450408457   0.336322488187164   0.112972153710823   1.0000000
N2   N   0.237091388492923   0.478084435720843   0.111554710394504   1.0000000
N2   N   0.237248059393376   0.621484490640442   0.110340070851889   1.0000000
N2   N   0.238305418300353   0.764918705532639   0.110085327641979   1.0000000
N2   N   0.381400828976567   0.908306706564939   0.110161414484412   1.0000000
N2   N   0.382589247656740   0.052365478420678   0.109554938592635   1.0000000
N2   N   0.383979442283141   0.196876233833466   0.110235313976871   1.0000000
N2   N   0.370066801668629   0.332299795935118   0.121911830782351   1.0000000
N2   N   0.378215620056459   0.482047723748899   0.113476311478372   1.0000000
N2   N   0.378100592700825   0.622234736664243   0.111685132031842   1.0000000
N2   N   0.380272819096214   0.764924414828470   0.110752771086638   1.0000000
N2   N   0.523367179507921   0.906411236560366   0.110636520456079   1.0000000
N2   N   0.524468409395805   0.050922589785185   0.110046364750067   1.0000000
N2   N   0.526212170221200   0.197194093535700   0.109516538180339   1.0000000
N2   N   0.538320651593601   0.347688851622808   0.108950622089696   1.0000000
N2   N   0.517034957496188   0.619367663329893   0.113018238523336   1.0000000
N2   N   0.521896322584182   0.762343902800757   0.111487154615392   1.0000000
N2   N   0.664942235882205   0.902208540754319   0.110901326072050   1.0000000
N2   N   0.666466152825236   0.046825923875854   0.110586015282760   1.0000000
N2   N   0.668046473516450   0.190392909421973   0.110438162266888   1.0000000
N2   N   0.673789019531116   0.332903918828962   0.110719408923266   1.0000000
N2   N   0.676240228727317   0.475453285167295   0.111079772420785   1.0000000
N2   N   0.654847279780308   0.604037607352154   0.110653072467959   1.0000000
N2   N   0.661231863864367   0.754790114488125   0.111297263897071   1.0000000
N2   N   0.806297844287856   0.900408983173267   0.110763975991973   1.0000000
N2   N   0.808467747584426   0.045366944428226   0.110599715399698   1.0000000
N2   N   0.810161349643679   0.189323478618832   0.110591193846260   1.0000000
N2   N   0.813421206459572   0.332905290445500   0.111153397860784   1.0000000
N2   N   0.814885114393792   0.476514771853989   0.111992748279737   1.0000000
N2   N   0.810045795068429   0.618434241994698   0.111264941490528   1.0000000
N2   N   0.804046831417874   0.755585827300192   0.110967463924844   1.0000000
O2   O   0.470716370671105   0.526515050423019   0.113146362943501   1.0000000
O2   O   0.525456137019194   0.419247652814577   0.108012873615407   1.0000000


