data_1
_audit_creation_method   'vasp2cif'
_cell_length_a    17.52789999999977
_cell_length_b    17.52789999999977
_cell_length_c    15.0
_cell_angle_alpha    90.0
_cell_angle_beta    90.0
_cell_angle_gamma    119.99999999999916

_symmetry_space_group_name_H-M    'P 1'
loop_
_atom_site_label
_atom_site_type_symbol
_atom_site_fract_x
_atom_site_fract_y
_atom_site_fract_z
_atom_site_occupancy
B2   B   0.905384073687081   0.952839115029346   0.111018529683278   1.0000000
B2   B   0.904806104977918   0.095273402840096   0.111052362760023   1.0000000
B2   B   0.904699495232998   0.238075459342139   0.111061646860114   1.0000000
B2   B   0.904802532337830   0.380972817798610   0.111010133480526   1.0000000
B2   B   0.905391452395424   0.523980363396419   0.111018464387385   1.0000000
B2   B   0.906474131787122   0.667288201791344   0.111083227626235   1.0000000
B2   B   0.906467137200184   0.810619758238882   0.111059893326812   1.0000000
B2   B   0.048004803477159   0.952561237808733   0.111023884578139   1.0000000
B2   B   0.047648717032779   0.095226631621466   0.111021305359815   1.0000000
B2   B   0.047466488894592   0.238009319724792   0.111009848954023   1.0000000
B2   B   0.047460147415467   0.380876678652708   0.111031769871381   1.0000000
B2   B   0.047657874972084   0.523844646485181   0.111022804248876   1.0000000
B2   B   0.048030363250552   0.666891639194769   0.111040383693397   1.0000000
B2   B   0.048245053646939   0.809845687386413   0.111018641030845   1.0000000
B2   B   0.190430548262775   0.952178841962890   0.111013256689521   1.0000000
B2   B   0.189876249326125   0.094421531876448   0.111071231437383   1.0000000
B2   B   0.190033035947810   0.237611443860198   0.111016513616480   1.0000000
B2   B   0.190029654417424   0.380710244900309   0.111025273991832   1.0000000
B2   B   0.190040355682833   0.523836376182575   0.111077689658518   1.0000000
B2   B   0.189898965060861   0.666878783065697   0.111073331437591   1.0000000
B2   B   0.190449058456600   0.809672831443107   0.111006816044434   1.0000000
B2   B   0.333125841342688   0.952265999746977   0.111036039116912   1.0000000
B2   B   0.332856246673515   0.094329091302665   0.111091561418476   1.0000000
B2   B   0.331498830166628   0.235556975847993   0.111058271895747   1.0000000
B2   B   0.332485515133669   0.379737303213835   0.111047713411644   1.0000000
B2   B   0.332491328836492   0.524142837264207   0.111069629839676   1.0000000
B2   B   0.331511878320348   0.667357124156041   0.111090956422827   1.0000000
B2   B   0.332879397611703   0.809954822124932   0.111065774913032   1.0000000
B2   B   0.475998962072565   0.952627952967106   0.111023073308859   1.0000000
B2   B   0.475996789290084   0.094797501121361   0.111020612342405   1.0000000
B2   B   0.475647028692293   0.236648857351165   0.111057382712855   1.0000000
B2   B   0.472770250497990   0.375965967272263   0.110954072844476   1.0000000
B2   B   0.472775828571959   0.668237455451377   0.110905793395245   1.0000000
B2   B   0.475656432631395   0.810439781188513   0.111049959701412   1.0000000
B2   B   0.618843109472584   0.952421044898898   0.111031116262724   1.0000000
B2   B   0.618954583451243   0.095204574869022   0.111011907758742   1.0000000
B2   B   0.618848132712298   0.237877395520322   0.111024047020597   1.0000000
B2   B   0.618832247146431   0.380829538956697   0.111006495468678   1.0000000
B2   B   0.624002150452092   0.527751230001859   0.110939606644907   1.0000000
B2   B   0.623996533281381   0.667696716571362   0.110927557332145   1.0000000
B2   B   0.618852081514789   0.809452398885645   0.110994888985886   1.0000000
B2   B   0.762137048628067   0.952454791209378   0.111020002343051   1.0000000
B2   B   0.761869132150566   0.095233146527979   0.111061376826098   1.0000000
B2   B   0.761867432632458   0.238096310944227   0.111065179366408   1.0000000
B2   B   0.762130157084082   0.381115988112397   0.111024130515923   1.0000000
B2   B   0.763581250359342   0.524553544141519   0.111053213195420   1.0000000
B2   B   0.766179855771585   0.668807707406558   0.111044287163841   1.0000000
B2   B   0.763588938215285   0.810473073883250   0.111030975596077   1.0000000
C2   C   0.472445510258319   0.521920611977210   0.110934802877995   1.0000000
C2   C   0.520816721883212   0.477731981022139   0.110830042106331   1.0000000
C2   C   0.520809202321872   0.614512122803075   0.110786814670368   1.0000000
N2   N   0.953006490336921   0.905321929396303   0.111013032267841   1.0000000
N2   N   0.952545436879580   0.047824682484022   0.111013379577962   1.0000000
N2   N   0.952373482387374   0.190488525677288   0.111034626263996   1.0000000
N2   N   0.952371238305350   0.333327241541499   0.111019367789683   1.0000000
N2   N   0.952550924203099   0.476157789332985   0.110971969190013   1.0000000
N2   N   0.953019560384525   0.619125151844555   0.111028902673700   1.0000000
N2   N   0.953199048507399   0.762319395898869   0.111048548509520   1.0000000
N2   N   0.095456164375910   0.904896531785228   0.110985467337737   1.0000000
N2   N   0.095144223699038   0.047568443350726   0.111026012492987   1.0000000
N2   N   0.095305828964214   0.190595494602304   0.110985407276857   1.0000000
N2   N   0.095327604080423   0.333372269973882   0.110996990638730   1.0000000
N2   N   0.095310424280141   0.476131910743484   0.111025733907259   1.0000000
N2   N   0.095161093675021   0.619008049079028   0.111031724157988   1.0000000
N2   N   0.095468234291513   0.762003930912476   0.111000421550772   1.0000000
N2   N   0.238105189005310   0.904760579449352   0.110990525117138   1.0000000
N2   N   0.237936905504464   0.047388879956135   0.111052938129219   1.0000000
N2   N   0.237279090130611   0.189670191439194   0.111041106313584   1.0000000
N2   N   0.238283546836739   0.333513187598863   0.111010286082282   1.0000000
N2   N   0.238285650393906   0.476170169679747   0.111054896104323   1.0000000
N2   N   0.237291489101133   0.619025738345092   0.111076556219772   1.0000000
N2   N   0.237957576990432   0.761972370449878   0.111031533917071   1.0000000
N2   N   0.380864751969474   0.904859938373750   0.111025093650672   1.0000000
N2   N   0.380857254104684   0.047418501415946   0.111038547042891   1.0000000
N2   N   0.380512365893046   0.189823861789456   0.111063496724318   1.0000000
N2   N   0.379177350333802   0.331250211309282   0.111020749748772   1.0000000
N2   N   0.381183569696875   0.476290402344142   0.111047641044006   1.0000000
N2   N   0.379180682997114   0.619335486161091   0.111021118148757   1.0000000
N2   N   0.380525985608359   0.762110097391756   0.111061078380908   1.0000000
N2   N   0.523640759309953   0.905010035797503   0.111027742604182   1.0000000
N2   N   0.523777244048287   0.047605051722155   0.110975392659399   1.0000000
N2   N   0.523638106118898   0.190066163635615   0.111021204521495   1.0000000
N2   N   0.522928390727002   0.332181647088804   0.110998445457548   1.0000000
N2   N   0.522942455375310   0.762189325431093   0.110973200110919   1.0000000
N2   N   0.666288407201236   0.904001030424500   0.111000822098066   1.0000000
N2   N   0.666535377522100   0.047431123957824   0.111018440897354   1.0000000
N2   N   0.666536390010464   0.190558423792195   0.111025121880444   1.0000000
N2   N   0.666281376221003   0.333732039430223   0.111001006379781   1.0000000
N2   N   0.667327137186928   0.477251262915240   0.110996300066449   1.0000000
N2   N   0.671668699418957   0.621560082817718   0.110970887704205   1.0000000
N2   N   0.667335579603378   0.761523671953951   0.110988318526335   1.0000000
N2   N   0.809947925912987   0.905025095049091   0.111004950247311   1.0000000
N2   N   0.809387292150052   0.047414511530913   0.111032783972899   1.0000000
N2   N   0.809415274857541   0.190437238754158   0.111055670119947   1.0000000
N2   N   0.809386811903122   0.333421483952952   0.111025184264328   1.0000000
N2   N   0.809946984745387   0.476362225182890   0.111019787782169   1.0000000
N2   N   0.811337414409073   0.619564879734111   0.111056934210779   1.0000000
N2   N   0.811336416000341   0.763208751455670   0.111036362034279   1.0000000


