data_1
_audit_creation_method   'vasp2cif'
_cell_length_a    17.52789999999977
_cell_length_b    17.52789999999977
_cell_length_c    15.0
_cell_angle_alpha    90.0
_cell_angle_beta    90.0
_cell_angle_gamma    119.99999999999916

_symmetry_space_group_name_H-M    'P 1'
loop_
_atom_site_label
_atom_site_type_symbol
_atom_site_fract_x
_atom_site_fract_y
_atom_site_fract_z
_atom_site_occupancy
B2   B   0.905386075498772   0.953390412633404   0.111006255146335   1.0000000
B2   B   0.905012782082902   0.095307831737489   0.111020357998547   1.0000000
B2   B   0.905293166814918   0.237602417398176   0.111021687894539   1.0000000
B2   B   0.906353968220339   0.380416526876753   0.111019034354727   1.0000000
B2   B   0.910394862389748   0.524517194033390   0.111018922171015   1.0000000
B2   B   0.910663664758292   0.671810541825976   0.111018411377295   1.0000000
B2   B   0.906467357806439   0.811646061243960   0.111074250378405   1.0000000
B2   B   0.048208563928071   0.953079184116532   0.111004246723860   1.0000000
B2   B   0.047426829912113   0.095237711383062   0.110990129030048   1.0000000
B2   B   0.047377014971260   0.237792434168297   0.110981975963245   1.0000000
B2   B   0.048074119414566   0.380791890150648   0.111009783728788   1.0000000
B2   B   0.049927523325765   0.524209952542791   0.111004637806981   1.0000000
B2   B   0.049886982876581   0.667804539163992   0.111007544918885   1.0000000
B2   B   0.050128850993996   0.811601245067564   0.111028394397218   1.0000000
B2   B   0.190778002910819   0.952441471708751   0.110991296204683   1.0000000
B2   B   0.189694528298642   0.094709545477405   0.111014744255974   1.0000000
B2   B   0.189031131104632   0.237336572188589   0.110992612395420   1.0000000
B2   B   0.189457558856480   0.380561441222800   0.110978744810400   1.0000000
B2   B   0.190578956777490   0.524067712161567   0.111053847197941   1.0000000
B2   B   0.191302383934832   0.667188132926600   0.111050229937478   1.0000000
B2   B   0.191377163618260   0.809988583447001   0.110988202497672   1.0000000
B2   B   0.333205705273710   0.951873303775151   0.111030249715520   1.0000000
B2   B   0.331603823286676   0.093281684604063   0.111042077511759   1.0000000
B2   B   0.330645449669262   0.236606150155998   0.111026990631650   1.0000000
B2   B   0.330220635884590   0.379215821047113   0.110984817560139   1.0000000
B2   B   0.331213174849588   0.524224977026119   0.110991089913667   1.0000000
B2   B   0.333076605772841   0.667212460198541   0.111085333835255   1.0000000
B2   B   0.333447347105245   0.809680540465042   0.111065887951723   1.0000000
B2   B   0.475892575238815   0.951740608931103   0.111029948312676   1.0000000
B2   B   0.475387303047211   0.093352667019721   0.111031790331272   1.0000000
B2   B   0.471426970813365   0.232562182723618   0.111025880827892   1.0000000
B2   B   0.470677192287988   0.375580032451298   0.111179093129105   1.0000000
B2   B   0.469846605724352   0.525723932128958   0.111041238446272   1.0000000
B2   B   0.475184806074869   0.667803308849218   0.111012577774689   1.0000000
B2   B   0.475864673071541   0.809864896454530   0.111049086718882   1.0000000
B2   B   0.618904733850303   0.952260069308969   0.111012969687114   1.0000000
B2   B   0.618891112139614   0.092737590723159   0.111003097645389   1.0000000
B2   B   0.619019472862923   0.232025314692761   0.110962500999811   1.0000000
B2   B   0.608043052625692   0.357696423181138   0.111236625344226   1.0000000
B2   B   0.608371828660047   0.534999866763155   0.111214697537802   1.0000000
B2   B   0.619850088976312   0.672805824749115   0.111014032146571   1.0000000
B2   B   0.618960107913721   0.811793804095498   0.111004768784064   1.0000000
B2   B   0.762249388496125   0.953158170771211   0.110991296202809   1.0000000
B2   B   0.762216987166138   0.094701121638353   0.111029354450860   1.0000000
B2   B   0.762679635894440   0.236432712892107   0.110990922333945   1.0000000
B2   B   0.763491297618383   0.378567289239222   0.111021662088363   1.0000000
B2   B   0.782677456984805   0.534379776778532   0.111083268872023   1.0000000
B2   B   0.763456854567594   0.670521254644854   0.111040647788238   1.0000000
B2   B   0.762840212389858   0.812006364263887   0.111033401273361   1.0000000
N2   N   0.953258027886250   0.906176985192222   0.111009818568223   1.0000000
N2   N   0.952604801030865   0.048029653154065   0.110988049465071   1.0000000
N2   N   0.952585019929915   0.190195258357079   0.110995463469031   1.0000000
N2   N   0.953242890256551   0.332736495568601   0.111003886551638   1.0000000
N2   N   0.955716854751923   0.475909851329578   0.110991171873150   1.0000000
N2   N   0.955483956809346   0.620596921497451   0.110995157029959   1.0000000
N2   N   0.955942244007104   0.765717098845851   0.111034476756893   1.0000000
N2   N   0.096302367162127   0.905974736350748   0.110990762950742   1.0000000
N2   N   0.094979597174304   0.047753545538217   0.110982136624145   1.0000000
N2   N   0.094433433838902   0.190062664191098   0.110967655537835   1.0000000
N2   N   0.094893601914551   0.332913229848778   0.110969540136969   1.0000000
N2   N   0.096180230295598   0.476036868835663   0.111006835284293   1.0000000
N2   N   0.096717839583405   0.619514483684167   0.110993987079659   1.0000000
N2   N   0.096764278230717   0.762940993492805   0.110985783940354   1.0000000
N2   N   0.238372416629327   0.904830716379801   0.110971668821231   1.0000000
N2   N   0.237136602529171   0.046892033056703   0.110998829490123   1.0000000
N2   N   0.236205045252370   0.189530883376465   0.111005243171446   1.0000000
N2   N   0.236006902590454   0.332434079281642   0.110957795830977   1.0000000
N2   N   0.237036904621279   0.476000881322753   0.110989414777226   1.0000000
N2   N   0.238336881671930   0.619280001565835   0.111070625768073   1.0000000
N2   N   0.238652945926820   0.762196534995829   0.111019851377008   1.0000000
N2   N   0.380892307381480   0.904479613862280   0.111021525485248   1.0000000
N2   N   0.380235253601833   0.046556276653366   0.111028656083755   1.0000000
N2   N   0.377453124950900   0.187550594167902   0.111021662369133   1.0000000
N2   N   0.376713884730177   0.331689962444193   0.111002480921883   1.0000000
N2   N   0.377396041170786   0.475802045179386   0.110965228027906   1.0000000
N2   N   0.380222140019164   0.619435484462495   0.111008598144297   1.0000000
N2   N   0.380883036444313   0.762128361887337   0.111067806639057   1.0000000
N2   N   0.523712600927549   0.904615675368602   0.111008096809954   1.0000000
N2   N   0.523578677298020   0.046354512074272   0.111000756229762   1.0000000
N2   N   0.522750896388887   0.187884462852916   0.110982970176567   1.0000000
N2   N   0.516632709910226   0.326818542516911   0.111048943897588   1.0000000
N2   N   0.522735651506782   0.620124480376266   0.111004467317854   1.0000000
N2   N   0.523534209708640   0.762668941185708   0.111003004166010   1.0000000
N2   N   0.666990184255447   0.905942070310309   0.110979945842999   1.0000000
N2   N   0.667009800272677   0.046543243494562   0.111006124136383   1.0000000
N2   N   0.667404926892418   0.186704932561892   0.110956657560069   1.0000000
N2   N   0.667958439280679   0.325280996317139   0.110993949045214   1.0000000
N2   N   0.667706767144860   0.628049345743366   0.111013174094647   1.0000000
N2   N   0.667438901210699   0.766255074707034   0.110992864978553   1.0000000
N2   N   0.810371740736995   0.906405573310205   0.110983969951456   1.0000000
N2   N   0.810003020608085   0.047785290472209   0.111000078163946   1.0000000
N2   N   0.810343366129885   0.189572711788605   0.111008313865129   1.0000000
N2   N   0.811181287298539   0.331831505902307   0.110989300329464   1.0000000
N2   N   0.816670222389747   0.475921760418841   0.111019295418582   1.0000000
N2   N   0.817141293237986   0.626882148535918   0.111003602736169   1.0000000
N2   N   0.811080416200537   0.764915408670098   0.111047022250808   1.0000000
O2   O   0.513600407650396   0.476603205531709   0.111151717703399   1.0000000
Se2   Se   0.665423130111805   0.475248178584665   0.111211016145585   1.0000000


