data_1
_audit_creation_method   'vasp2cif'
_cell_length_a    17.52789999999977
_cell_length_b    17.52789999999977
_cell_length_c    15.0
_cell_angle_alpha    90.0
_cell_angle_beta    90.0
_cell_angle_gamma    119.99999999999916

_symmetry_space_group_name_H-M    'P 1'
loop_
_atom_site_label
_atom_site_type_symbol
_atom_site_fract_x
_atom_site_fract_y
_atom_site_fract_z
_atom_site_occupancy
Al2   Al   0.486937937443815   0.513063464473181   0.111807791304811   1.0000000
B2   B   0.906227773035095   0.953349729552701   0.111003596118340   1.0000000
B2   B   0.904574090876501   0.095427930319495   0.111018625708419   1.0000000
B2   B   0.904128211888696   0.238141689559134   0.111021803612056   1.0000000
B2   B   0.904740414952289   0.381063033965613   0.110971677466467   1.0000000
B2   B   0.906337237686445   0.524194117009627   0.111045904614301   1.0000000
B2   B   0.907478230290252   0.667521917445063   0.111071772585720   1.0000000
B2   B   0.907626587719682   0.810916491913648   0.111026034107330   1.0000000
B2   B   0.048386263601834   0.951615757594169   0.111010228347882   1.0000000
B2   B   0.046652291643303   0.093774248160893   0.111003596118340   1.0000000
B2   B   0.046033922224939   0.237010723846511   0.110976686017217   1.0000000
B2   B   0.046646549939213   0.380398750374382   0.110997453295119   1.0000000
B2   B   0.048190825397479   0.523501479480478   0.111002082457129   1.0000000
B2   B   0.049292087317533   0.666373270060772   0.111063699063198   1.0000000
B2   B   0.049289627620236   0.809139611657199   0.111039924556196   1.0000000
B2   B   0.190862409538804   0.950712393575775   0.111039924556196   1.0000000
B2   B   0.189085529282355   0.092375433476313   0.111026034107330   1.0000000
B2   B   0.186654137224440   0.234221202926177   0.110970088124004   1.0000000
B2   B   0.187718626953223   0.379018780635300   0.111019327841876   1.0000000
B2   B   0.190122653809936   0.522807744791740   0.111047730677384   1.0000000
B2   B   0.191729921870280   0.665745589264520   0.111030236244170   1.0000000
B2   B   0.191631905039937   0.808370116156067   0.111021027476620   1.0000000
B2   B   0.333628751136226   0.950709933878471   0.111063699063198   1.0000000
B2   B   0.332480103751935   0.092523790905745   0.111071772585720   1.0000000
B2   B   0.329139858429869   0.232235161007475   0.111010069674543   1.0000000
B2   B   0.325266897897499   0.375205033031711   0.111030046272600   1.0000000
B2   B   0.331786453416126   0.521379429888901   0.111104492885063   1.0000000
B2   B   0.334658511056688   0.665343510140311   0.111092995679199   1.0000000
B2   B   0.334256431932479   0.808272099325724   0.111030236244170   1.0000000
B2   B   0.476500541716520   0.951811195798525   0.111002082457129   1.0000000
B2   B   0.475807904187371   0.093664783509551   0.111045904614301   1.0000000
B2   B   0.474735123268074   0.234399783544676   0.111028917400965   1.0000000
B2   B   0.465744604417774   0.363406350539834   0.110922180474602   1.0000000
B2   B   0.478622591308097   0.668215567780872   0.111104492885063   1.0000000
B2   B   0.477194276405258   0.809879367386068   0.111047730677384   1.0000000
B2   B   0.619603270821621   0.953355471256791   0.110997453295119   1.0000000
B2   B   0.618938987230391   0.095261606243707   0.110971677466467   1.0000000
B2   B   0.618949225462721   0.237563668589790   0.110977659864931   1.0000000
B2   B   0.619794768992536   0.380207252203467   0.111003722571462   1.0000000
B2   B   0.636595670656169   0.534257416779224   0.110922180474602   1.0000000
B2   B   0.624796988164292   0.674735123299499   0.111030046272600   1.0000000
B2   B   0.620983240560704   0.812283394242781   0.111019327841876   1.0000000
B2   B   0.762991297349500   0.953968098971065   0.110976686017217   1.0000000
B2   B   0.761860331636870   0.095873809307300   0.111021803612056   1.0000000
B2   B   0.761692574646780   0.238309446549224   0.111008293032326   1.0000000
B2   B   0.762438352606215   0.381052795733283   0.110977659864931   1.0000000
B2   B   0.765602237651328   0.525266897928924   0.111028917400965   1.0000000
B2   B   0.767766860188529   0.670862162767128   0.111010069674543   1.0000000
B2   B   0.765780818269827   0.813347883971564   0.110970088124004   1.0000000
N2   N   0.953684909799232   0.905265546832932   0.110993209744615   1.0000000
N2   N   0.952311180630004   0.047690221288002   0.111001371091422   1.0000000
N2   N   0.951414752699418   0.190269992694379   0.110992269236951   1.0000000
N2   N   0.951644094192127   0.333208929181977   0.110970911347267   1.0000000
N2   N   0.952785595824405   0.476165734715818   0.110974527744865   1.0000000
N2   N   0.953767340579019   0.619103980018937   0.111070355302672   1.0000000
N2   N   0.954081750194573   0.762181273140085   0.111034710791004   1.0000000
N2   N   0.096024151185219   0.903977250732780   0.110999719006232   1.0000000
N2   N   0.094735855085067   0.046316492118774   0.110993209744615   1.0000000
N2   N   0.092867625627478   0.188317262853294   0.110954531244502   1.0000000
N2   N   0.093299134838646   0.332042289681068   0.110974484792535   1.0000000
N2   N   0.095008325023072   0.475489997342860   0.110992145350162   1.0000000
N2   N   0.096344428296528   0.618503853780500   0.111013499039637   1.0000000
N2   N   0.096487195473437   0.761279531985564   0.111024573703231   1.0000000
N2   N   0.238721869932442   0.903514206444561   0.111024573703231   1.0000000
N2   N   0.237820128777921   0.045919651723433   0.111034710791004   1.0000000
N2   N   0.235598914877253   0.187427151303826   0.110974567796526   1.0000000
N2   N   0.232542111116486   0.328446975031673   0.110979360018506   1.0000000
N2   N   0.236658353864212   0.474340487112583   0.111038252447978   1.0000000
N2   N   0.239179457031879   0.617956814673257   0.111039210023623   1.0000000
N2   N   0.239171936067729   0.760829465850278   0.111000967006593   1.0000000
N2   N   0.381497548137498   0.903656973621471   0.111013499039637   1.0000000
N2   N   0.380897421899061   0.046234061338987   0.111070355302672   1.0000000
N2   N   0.379994345036437   0.188409004121186   0.111016068314027   1.0000000
N2   N   0.375643512845714   0.328934425804963   0.110962224169975   1.0000000
N2   N   0.372498995063531   0.467487072821485   0.111108388350289   1.0000000
N2   N   0.382601399930181   0.617400001987817   0.111118461721661   1.0000000
N2   N   0.382044587244741   0.760821944886127   0.111039210023623   1.0000000
N2   N   0.524511404574137   0.904993076894926   0.110992145350162   1.0000000
N2   N   0.523835667201179   0.047215806093601   0.110974527744865   1.0000000
N2   N   0.523566538951592   0.189583907740201   0.111002526020422   1.0000000
N2   N   0.524136853635402   0.332374375745546   0.110994184087689   1.0000000
N2   N   0.532514329095512   0.627502406854467   0.111108388350289   1.0000000
N2   N   0.525660914804414   0.763343048053787   0.111038252447978   1.0000000
N2   N   0.667959112235922   0.906702267079360   0.110974484792535   1.0000000
N2   N   0.666792472735019   0.048357307725878   0.110970911347267   1.0000000
N2   N   0.666390947497875   0.190701625675099   0.110961218945252   1.0000000
N2   N   0.666607572438803   0.333393829478194   0.110964653022474   1.0000000
N2   N   0.667627026171451   0.475864548281595   0.110994184087689   1.0000000
N2   N   0.671066976112034   0.624357889072284   0.110962224169975   1.0000000
N2   N   0.671554426885323   0.767459290801520   0.110979360018506   1.0000000
N2   N   0.811684139064704   0.907133776290521   0.110954531244502   1.0000000
N2   N   0.809731409223619   0.048586649218587   0.110992269236951   1.0000000
N2   N   0.809078114661370   0.190923287256629   0.111022786703026   1.0000000
N2   N   0.809299776242900   0.333610454419122   0.110961218945252   1.0000000
N2   N   0.810417494177799   0.476434862965404   0.111002526020422   1.0000000
N2   N   0.811592397796813   0.620007056881562   0.111016068314027   1.0000000
N2   N   0.812574250614166   0.764402487040752   0.110974567796526   1.0000000


