data_1
_audit_creation_method   'vasp2cif'
_cell_length_a    14.93631414619966
_cell_length_b    14.936314146199727
_cell_length_c    13.341276283792837
_cell_angle_alpha    90.0
_cell_angle_beta    90.0
_cell_angle_gamma    119.99999999999984

_symmetry_space_group_name_H-M    'P 1'
loop_
_atom_site_label
_atom_site_type_symbol
_atom_site_fract_x
_atom_site_fract_y
_atom_site_fract_z
_atom_site_occupancy
Ga2   Ga   0.494461445356073   0.413897389344701   0.375000000000000   1.0000000
N2   N   0.111046835105404   0.055534624527192   0.124851989087360   1.0000000
N2   N   0.611401214124150   0.556063682223054   0.124645771144785   1.0000000
N2   N   0.444487969161079   0.055563265288003   0.124730073427457   1.0000000
N2   N   0.944445140516620   0.555528676228748   0.124699532313385   1.0000000
N2   N   0.777840870615724   0.055587101974530   0.124847357017481   1.0000000
N2   N   0.111104927772040   0.722219130552685   0.625142616344110   1.0000000
N2   N   0.444487969161079   0.722258037206410   0.625269926572543   1.0000000
N2   N   0.277573983331187   0.222110447072431   0.625776658486141   1.0000000
N2   N   0.777882068178283   0.722437007683469   0.625913760344628   1.0000000
N2   N   0.611229040625202   0.222112097036722   0.625969074808230   1.0000000
N2   N   0.944436863704839   0.222187703114322   0.625102748385367   1.0000000
N2   N   0.277794533249307   0.722222669127337   0.124876201337916   1.0000000
N2   N   0.110984476577081   0.222158904955205   0.124821177603282   1.0000000
N2   N   0.444483708236246   0.222231998245395   0.124654986213803   1.0000000
N2   N   0.611229040625202   0.722450276921809   0.124030925191769   1.0000000
N2   N   0.944445140516620   0.722249797621209   0.124699532313385   1.0000000
N2   N   0.777860140748177   0.222146765053663   0.124752602975121   1.0000000
N2   N   0.111105344274700   0.888908066628406   0.625143434789856   1.0000000
N2   N   0.444484511498439   0.888908922415885   0.625163018258956   1.0000000
N2   N   0.277573983331187   0.388796869592086   0.625776658486141   1.0000000
N2   N   0.611401214124150   0.388670865234424   0.625354228855215   1.0000000
N2   N   0.777860140748177   0.889046709027841   0.625247397024880   1.0000000
N2   N   0.944464206964856   0.388838713029017   0.625128977397624   1.0000000
N2   N   0.111046835105404   0.388845543911541   0.124851989087360   1.0000000
N2   N   0.277794533249307   0.888905197455298   0.124876201337916   1.0000000
N2   N   0.611177567464252   0.888974433499431   0.124808326445522   1.0000000
N2   N   0.443921054985472   0.388627194159401   0.125530025080403   1.0000000
N2   N   0.944464206964856   0.888958827269169   0.124871022602377   1.0000000
N2   N   0.777882068178283   0.388778393828142   0.124086239655372   1.0000000
N2   N   0.277782649647999   0.555546665089094   0.625222752183994   1.0000000
N2   N   0.111046835105404   0.055534624527192   0.625148010912639   1.0000000
N2   N   0.611401214124150   0.556063682223054   0.625354228855215   1.0000000
N2   N   0.444487969161079   0.055563265288003   0.625269926572543   1.0000000
N2   N   0.944445140516620   0.555528676228748   0.625300467686615   1.0000000
N2   N   0.111105344274700   0.555530610979623   0.124856565210144   1.0000000
N2   N   0.777840870615724   0.055587101974530   0.625152642982519   1.0000000
N2   N   0.277782649647999   0.055569317892242   0.124777247816006   1.0000000
N2   N   0.444483708236246   0.555585043324187   0.124654986213803   1.0000000
N2   N   0.777817047723381   0.555575190528359   0.124334128486161   1.0000000
N2   N   0.611177567464252   0.055536467298151   0.124808326445522   1.0000000
N2   N   0.444483708236246   0.555585043324187   0.625345013786197   1.0000000
N2   N   0.944436863704839   0.055582493923854   0.124897251614634   1.0000000
N2   N   0.277794533249307   0.722222669127337   0.625123798662085   1.0000000
N2   N   0.110984476577081   0.222158904955205   0.625178822396718   1.0000000
N2   N   0.444483708236246   0.222231998245395   0.625345013786197   1.0000000
N2   N   0.611229040625202   0.722450276921809   0.625969074808230   1.0000000
N2   N   0.944445140516620   0.722249797621209   0.625300467686615   1.0000000
N2   N   0.777860140748177   0.222146765053663   0.625247397024880   1.0000000
N2   N   0.111104927772040   0.722219130552685   0.124857383655891   1.0000000
N2   N   0.444487969161079   0.722258037206410   0.124730073427457   1.0000000
N2   N   0.277573983331187   0.222110447072431   0.124223341513857   1.0000000
N2   N   0.777882068178283   0.722437007683469   0.124086239655372   1.0000000
N2   N   0.611229040625202   0.222112097036722   0.124030925191769   1.0000000
N2   N   0.944436863704839   0.222187703114322   0.124897251614634   1.0000000
N2   N   0.111046835105404   0.388845543911541   0.625148010912639   1.0000000
N2   N   0.277794533249307   0.888905197455298   0.625123798662085   1.0000000
N2   N   0.611177567464252   0.888974433499431   0.625191673554479   1.0000000
N2   N   0.443921054985472   0.388627194159401   0.624469974919597   1.0000000
N2   N   0.944464206964856   0.888958827269169   0.625128977397624   1.0000000
N2   N   0.111105344274700   0.888908066628406   0.124856565210144   1.0000000
N2   N   0.777882068178283   0.388778393828142   0.625913760344628   1.0000000
N2   N   0.444484511498439   0.888908922415885   0.124836981741044   1.0000000
N2   N   0.277573983331187   0.388796869592086   0.124223341513857   1.0000000
N2   N   0.277782649647999   0.555546665089094   0.124777247816006   1.0000000
N2   N   0.611401214124150   0.388670865234424   0.124645771144785   1.0000000
N2   N   0.777860140748177   0.889046709027841   0.124752602975121   1.0000000
N2   N   0.944464206964856   0.388838713029017   0.124871022602377   1.0000000
N2   N   0.111105344274700   0.555530610979623   0.625143434789856   1.0000000
N2   N   0.277782649647999   0.055569317892242   0.625222752183994   1.0000000
N2   N   0.777817047723381   0.555575190528359   0.625665871513839   1.0000000
N2   N   0.611177567464252   0.055536467298151   0.625191673554479   1.0000000
N2   N   0.944436863704839   0.055582493923854   0.625102748385367   1.0000000
N2   N   0.058414501055419   0.112590791437801   0.375000000000000   1.0000000
N2   N   0.556040249310746   0.618655999782730   0.375000000000000   1.0000000
N2   N   0.388360435233270   0.105442936898350   0.375000000000000   1.0000000
N2   N   0.887678109910430   0.610505721621887   0.375000000000000   1.0000000
N2   N   0.724384688935761   0.111524708410232   0.375000000000000   1.0000000
N2   N   0.055616324559049   0.777805922004916   0.875000000000000   1.0000000
N2   N   0.388902246850793   0.777802502535429   0.875000000000000   1.0000000
N2   N   0.222277957812316   0.277805645572826   0.875000000000000   1.0000000
N2   N   0.722243010063802   0.777769109631590   0.875000000000000   1.0000000
N2   N   0.555552759625221   0.277763671583102   0.875000000000000   1.0000000
N2   N   0.888918816948741   0.277803884919322   0.875000000000000   1.0000000
N2   N   0.221362386313061   0.777347859823199   0.375000000000000   1.0000000
N2   N   0.058414501055419   0.279157042950954   0.375000000000000   1.0000000
N2   N   0.390484211946427   0.270145445710864   0.375000000000000   1.0000000
N2   N   0.556425887584561   0.781568011147053   0.375000000000000   1.0000000
N2   N   0.889056274776443   0.778011340871032   0.375000000000000   1.0000000
N2   N   0.723951518885083   0.276978550099529   0.375000000000000   1.0000000
N2   N   0.055589670419272   0.944454606381504   0.875000000000000   1.0000000
N2   N   0.388902246850793   0.944433077648699   0.875000000000000   1.0000000
N2   N   0.222256134445045   0.444478150997647   0.875000000000000   1.0000000
N2   N   0.555583264107413   0.444458298720371   0.875000000000000   1.0000000
N2   N   0.722243008456890   0.944447769388885   0.875000000000000   1.0000000
N2   N   0.888940789070299   0.444483348111036   0.875000000000000   1.0000000
N2   N   0.056162270636870   0.445196073775040   0.375000000000000   1.0000000
N2   N   0.221488988639594   0.942621042990045   0.375000000000000   1.0000000
N2   N   0.556610500780041   0.944971917056685   0.375000000000000   1.0000000
N2   N   0.390484211946427   0.453672099568898   0.375000000000000   1.0000000
N2   N   0.891102342609461   0.945994694208280   0.375000000000000   1.0000000
N2   N   0.721455871530461   0.443227948159670   0.375000000000000   1.0000000
N2   N   0.222240915322120   0.611139555470031   0.875000000000000   1.0000000
N2   N   0.055596595490740   0.111128516502520   0.875000000000000   1.0000000
N2   N   0.555552759625221   0.611122421375456   0.875000000000000   1.0000000
N2   N   0.388892924536646   0.111073874082137   0.875000000000000   1.0000000
N2   N   0.888989666598844   0.611161499966091   0.875000000000000   1.0000000
N2   N   0.054731807113276   0.611034279292168   0.375000000000000   1.0000000
N2   N   0.722243008456890   0.111128572401339   0.875000000000000   1.0000000
N2   N   0.223159971493057   0.109986760874463   0.375000000000000   1.0000000
N2   N   0.388360435233270   0.616250831668263   0.375000000000000   1.0000000
N2   N   0.721455871530461   0.611561256704126   0.375000000000000   1.0000000
N2   N   0.556425887584561   0.108191209770844   0.375000000000000   1.0000000
N2   N   0.388892924536646   0.611152383787852   0.875000000000000   1.0000000
N2   N   0.891623805967732   0.112478569650537   0.375000000000000   1.0000000
N2   N   0.222253397496607   0.777793365414971   0.875000000000000   1.0000000
N2   N   0.055596595490740   0.277801412321556   0.875000000000000   1.0000000
N2   N   0.388928502743506   0.277765041563008   0.875000000000000   1.0000000
N2   N   0.555563379692823   0.777787967243405   0.875000000000000   1.0000000
N2   N   0.888940789070299   0.777790774292598   0.875000000000000   1.0000000
N2   N   0.722243010063802   0.277807233765548   0.875000000000000   1.0000000
N2   N   0.054731807113276   0.777030861154444   0.375000000000000   1.0000000
N2   N   0.388609242813290   0.779345186746036   0.375000000000000   1.0000000
N2   N   0.226535109590844   0.279934221462090   0.375000000000000   1.0000000
N2   N   0.723951518885083   0.780306302118889   0.375000000000000   1.0000000
N2   N   0.556040249310746   0.270717582861352   0.375000000000000   1.0000000
N2   N   0.891102342609461   0.278440981734519   0.375000000000000   1.0000000
N2   N   0.055589670419272   0.444468397371097   0.875000000000000   1.0000000
N2   N   0.222240915322120   0.944434693185425   0.875000000000000   1.0000000
N2   N   0.555572518782686   0.944452926058008   0.875000000000000   1.0000000
N2   N   0.388928502743506   0.444496794513834   0.875000000000000   1.0000000
N2   N   0.888918816948741   0.944448265362755   0.875000000000000   1.0000000
N2   N   0.056162270636870   0.944299530195159   0.375000000000000   1.0000000
N2   N   0.722290329040932   0.444498987566766   0.875000000000000   1.0000000
N2   N   0.388609242813290   0.942597389400590   0.375000000000000   1.0000000
N2   N   0.223159971493057   0.446506543951930   0.375000000000000   1.0000000
N2   N   0.221488988639594   0.612201278982884   0.375000000000000   1.0000000
N2   N   0.724384688935761   0.946193313858865   0.375000000000000   1.0000000
N2   N   0.889056274776443   0.444378267238748   0.375000000000000   1.0000000
N2   N   0.055616324559049   0.611143735887468   0.875000000000000   1.0000000
N2   N   0.222256134445045   0.111111316780734   0.875000000000000   1.0000000
N2   N   0.722290329040932   0.611124674807501   0.875000000000000   1.0000000
N2   N   0.555563379692823   0.111108745782755   0.875000000000000   1.0000000
N2   N   0.888920985102793   0.111127159218068   0.875000000000000   1.0000000
B2   B   0.113067048731362   0.055914112862596   0.375000000000000   1.0000000
B2   B   0.609231189803817   0.559938177685468   0.375000000000000   1.0000000
B2   B   0.445095124178809   0.052885587922311   0.375000000000000   1.0000000
B2   B   0.943365074741436   0.555363240864455   0.375000000000000   1.0000000
B2   B   0.780394530670673   0.056863932002004   0.375000000000000   1.0000000
B2   B   0.111133944657935   0.722233638995632   0.875000000000000   1.0000000
B2   B   0.444451035644154   0.722161545418909   0.875000000000000   1.0000000
B2   B   0.277982709006719   0.222345287950312   0.875000000000000   1.0000000
B2   B   0.777710105604037   0.722068621887384   0.875000000000000   1.0000000
B2   B   0.611063651508713   0.222337627712633   0.875000000000000   1.0000000
B2   B   0.944503470724028   0.222275069059192   0.875000000000000   1.0000000
B2   B   0.277520429318555   0.722824136438593   0.375000000000000   1.0000000
B2   B   0.116051853618899   0.224692593476114   0.375000000000000   1.0000000
B2   B   0.444187413580037   0.216191681213590   0.375000000000000   1.0000000
B2   B   0.612220803532870   0.726466402349823   0.375000000000000   1.0000000
B2   B   0.943365074741436   0.721335167210316   0.375000000000000   1.0000000
B2   B   0.779841927551484   0.222753550915361   0.375000000000000   1.0000000
B2   B   0.111158368783083   0.888905028588591   0.875000000000000   1.0000000
B2   B   0.444448998323062   0.888891165828196   0.875000000000000   1.0000000
B2   B   0.277982709006719   0.388970754389735   0.875000000000000   1.0000000
B2   B   0.611058051124117   0.388976384635169   0.875000000000000   1.0000000
B2   B   0.777751382380934   0.888786094441967   0.875000000000000   1.0000000
B2   B   0.944457393501031   0.388947886094430   0.875000000000000   1.0000000
B2   B   0.113067048731362   0.390486269202095   0.375000000000000   1.0000000
B2   B   0.277520429318555   0.888029626213290   0.375000000000000   1.0000000
B2   B   0.612948418458565   0.891031031441121   0.375000000000000   1.0000000
B2   B   0.945213235669946   0.889032290829955   0.375000000000000   1.0000000
B2   B   0.777350389641482   0.388664390572632   0.375000000000000   1.0000000
B2   B   0.277874175900420   0.555576267849509   0.875000000000000   1.0000000
B2   B   0.111223099430296   0.055609705734737   0.875000000000000   1.0000000
B2   B   0.611058051124117   0.555414999822276   0.875000000000000   1.0000000
B2   B   0.444451035644154   0.055622823558580   0.875000000000000   1.0000000
B2   B   0.944439252208682   0.555592061899300   0.875000000000000   1.0000000
B2   B   0.110778120747095   0.556115737855075   0.375000000000000   1.0000000
B2   B   0.777779223128536   0.055556278230936   0.875000000000000   1.0000000
B2   B   0.277942099372000   0.053796408044381   0.375000000000000   1.0000000
B2   B   0.444187413580037   0.561329065699783   0.375000000000000   1.0000000
B2   B   0.775171770266162   0.554252551799747   0.375000000000000   1.0000000
B2   B   0.612948418458565   0.055250720350773   0.375000000000000   1.0000000
B2   B   0.444516889536583   0.555509069193957   0.875000000000000   1.0000000
B2   B   0.947537408088703   0.057212551828114   0.375000000000000   1.0000000
B2   B   0.277814043485375   0.722223856861253   0.875000000000000   1.0000000
B2   B   0.111276588034274   0.222304960683801   0.875000000000000   1.0000000
B2   B   0.444516889536583   0.222341153675961   0.875000000000000   1.0000000
B2   B   0.611063651508713   0.722059357129409   0.875000000000000   1.0000000
B2   B   0.944439252208682   0.722180523642718   0.875000000000000   1.0000000
B2   B   0.777751382380934   0.222298621272295   0.875000000000000   1.0000000
B2   B   0.110293242067183   0.721813287700256   0.375000000000000   1.0000000
B2   B   0.445095124178809   0.725542869589834   0.375000000000000   1.0000000
B2   B   0.282906950074818   0.223152752551119   0.375000000000000   1.0000000
B2   B   0.777350389641482   0.722019332402181   0.375000000000000   1.0000000
B2   B   0.612220803532870   0.219087734516376   0.375000000000000   1.0000000
B2   B   0.947537408088703   0.223658189593925   0.375000000000000   1.0000000
B2   B   0.111223099430296   0.388946727028889   0.875000000000000   1.0000000
B2   B   0.277814043485375   0.888923519957451   0.875000000000000   1.0000000
B2   B   0.611092692720432   0.888829684134004   0.875000000000000   1.0000000
B2   B   0.444615250271966   0.388974291802647   0.875000000000000   1.0000000
B2   B   0.944457393501031   0.888842840739930   0.875000000000000   1.0000000
B2   B   0.110778120747095   0.887995716225349   0.375000000000000   1.0000000
B2   B   0.777710105604037   0.388974817049983   0.875000000000000   1.0000000
B2   B   0.445202062088365   0.889267697710847   0.375000000000000   1.0000000
B2   B   0.282906950074818   0.393087530857028   0.375000000000000   1.0000000
B2   B   0.277942099372000   0.557479024660955   0.375000000000000   1.0000000
B2   B   0.609231189803817   0.382626345451678   0.375000000000000   1.0000000
B2   B   0.779841927551484   0.890421709969452   0.375000000000000   1.0000000
B2   B   0.945213235669946   0.389514278173321   0.375000000000000   1.0000000
B2   B   0.111158368783083   0.555586673527821   0.875000000000000   1.0000000
B2   B   0.277874175900420   0.055631241384247   0.875000000000000   1.0000000
B2   B   0.777718274676154   0.555525804004744   0.875000000000000   1.0000000
B2   B   0.611092692720432   0.055596341919756   0.875000000000000   1.0000000
B2   B   0.944503470724028   0.055561734998172   0.875000000000000   1.0000000
B2   B   0.055610330365002   0.111183812641245   0.125240133135279   1.0000000
B2   B   0.555803215928905   0.610904070545122   0.125226782638683   1.0000000
B2   B   0.389122334306261   0.111574152738572   0.125238825957239   1.0000000
B2   B   0.888464028272072   0.610898680802708   0.124976661152213   1.0000000
B2   B   0.722258022071524   0.111136336814896   0.125125387846677   1.0000000
B2   B   0.055420199940543   0.777744866006647   0.624895778060370   1.0000000
B2   B   0.389004513647061   0.777717413075769   0.624865267413541   1.0000000
B2   B   0.222355537061077   0.277844435197206   0.624877460269069   1.0000000
B2   B   0.722167326579062   0.777717583177766   0.625229856775324   1.0000000
B2   B   0.555803215928905   0.278232478717118   0.624773217361317   1.0000000
B2   B   0.888872474538391   0.277736581954397   0.624836886548345   1.0000000
B2   B   0.222244572977264   0.777788953155300   0.125121295300285   1.0000000
B2   B   0.055610330365002   0.277759851057093   0.125240133135279   1.0000000
B2   B   0.389040107721420   0.278192114837065   0.125853050683070   1.0000000
B2   B   0.555663864171570   0.777688686653938   0.124934726723795   1.0000000
B2   B   0.888693584931928   0.777707268965697   0.124906688185268   1.0000000
B2   B   0.722167326579062   0.277783076734630   0.124770143224676   1.0000000
B2   B   0.055550613965629   0.944524252666419   0.624797236926213   1.0000000
B2   B   0.389004513647061   0.944620433904628   0.624865267413541   1.0000000
B2   B   0.222355072056560   0.444323887195866   0.624880107991158   1.0000000
B2   B   0.555568414106169   0.444450873719749   0.615427386184101   1.0000000
B2   B   0.722258022071524   0.944455018589963   0.624874612153323   1.0000000
B2   B   0.888693584931928   0.444319649299567   0.625093311814731   1.0000000
B2   B   0.055550613965629   0.444359694632539   0.125202763073786   1.0000000
B2   B   0.222316371756566   0.944651080901462   0.125169339637615   1.0000000
B2   B   0.555636007182888   0.944484670258109   0.125152349281278   1.0000000
B2   B   0.389040107721420   0.444181326217691   0.125853050683070   1.0000000
B2   B   0.888872474538391   0.944469225917328   0.125163113451656   1.0000000
B2   B   0.721728276615061   0.444154504389843   0.124944224930849   1.0000000
B2   B   0.222316371756566   0.610998624188441   0.624830660362386   1.0000000
B2   B   0.055610330365002   0.111183812641245   0.624759866864721   1.0000000
B2   B   0.555803215928905   0.610904070545122   0.624773217361317   1.0000000
B2   B   0.389122334306261   0.111574152738572   0.624761174042762   1.0000000
B2   B   0.888464028272072   0.610898680802708   0.625023338847786   1.0000000
B2   B   0.055420199940543   0.611008667267231   0.125104221939630   1.0000000
B2   B   0.722258022071524   0.111136336814896   0.624874612153323   1.0000000
B2   B   0.222355072056560   0.111364518194031   0.125119892008842   1.0000000
B2   B   0.389122334306261   0.610881514901031   0.125238825957239   1.0000000
B2   B   0.721728276615061   0.610907105558555   0.124944224930849   1.0000000
B2   B   0.555663864171570   0.111308510850967   0.124934726723795   1.0000000
B2   B   0.389122334306261   0.610881514901031   0.624761174042762   1.0000000
B2   B   0.888918113460386   0.111125723396865   0.125160183572792   1.0000000
B2   B   0.222244572977264   0.777788953155300   0.624878704699715   1.0000000
B2   B   0.055610330365002   0.277759851057093   0.624759866864721   1.0000000
B2   B   0.389040107721420   0.278192114837065   0.624146949316929   1.0000000
B2   B   0.555663864171570   0.777688686653938   0.625065273276205   1.0000000
B2   B   0.888693584931928   0.777707268965697   0.625093311814731   1.0000000
B2   B   0.722167326579062   0.277783076734630   0.625229856775324   1.0000000
B2   B   0.055420199940543   0.777744866006647   0.125104221939630   1.0000000
B2   B   0.389004513647061   0.777717413075769   0.125134732586458   1.0000000
B2   B   0.222355537061077   0.277844435197206   0.125122539730932   1.0000000
B2   B   0.722167326579062   0.777717583177766   0.124770143224676   1.0000000
B2   B   0.555803215928905   0.278232478717118   0.125226782638683   1.0000000
B2   B   0.888872474538391   0.277736581954397   0.125163113451656   1.0000000
B2   B   0.055550613965629   0.444359694632539   0.624797236926213   1.0000000
B2   B   0.222316371756566   0.944651080901462   0.624830660362386   1.0000000
B2   B   0.555636007182888   0.944484670258109   0.624847650718722   1.0000000
B2   B   0.389040107721420   0.444181326217691   0.624146949316929   1.0000000
B2   B   0.888872474538391   0.944469225917328   0.624836886548345   1.0000000
B2   B   0.055550613965629   0.944524252666419   0.125202763073786   1.0000000
B2   B   0.721728276615061   0.444154504389843   0.625055775069151   1.0000000
B2   B   0.389004513647061   0.944620433904628   0.125134732586458   1.0000000
B2   B   0.222355072056560   0.444323887195866   0.125119892008842   1.0000000
B2   B   0.222316371756566   0.610998624188441   0.125169339637615   1.0000000
B2   B   0.555568414106169   0.444450873719749   0.134572613815898   1.0000000
B2   B   0.722258022071524   0.944455018589963   0.125125387846677   1.0000000
B2   B   0.888693584931928   0.444319649299567   0.124906688185268   1.0000000
B2   B   0.055420199940543   0.611008667267231   0.624895778060370   1.0000000
B2   B   0.222355072056560   0.111364518194031   0.624880107991158   1.0000000
B2   B   0.721728276615061   0.610907105558555   0.625055775069151   1.0000000
B2   B   0.555663864171570   0.111308510850967   0.625065273276205   1.0000000
B2   B   0.888918113460386   0.111125723396865   0.624839816427208   1.0000000


