data_1
_audit_creation_method   'vasp2cif'
_cell_length_a    17.52789999999977
_cell_length_b    17.52789999999977
_cell_length_c    15.0
_cell_angle_alpha    90.0
_cell_angle_beta    90.0
_cell_angle_gamma    119.99999999999916

_symmetry_space_group_name_H-M    'P 1'
loop_
_atom_site_label
_atom_site_type_symbol
_atom_site_fract_x
_atom_site_fract_y
_atom_site_fract_z
_atom_site_occupancy
As2   As   0.449298712455638   0.513574156593118   0.261240019136847   1.0000000
B2   B   0.905596760880840   0.952919513320285   0.104281236276038   1.0000000
B2   B   0.905137873436104   0.095399960442119   0.103060495163400   1.0000000
B2   B   0.904905879695976   0.238045584223285   0.103383820425056   1.0000000
B2   B   0.904869323464823   0.380775319733584   0.103751465901826   1.0000000
B2   B   0.905108335662660   0.523664317581019   0.104266924735705   1.0000000
B2   B   0.905198280883302   0.666753103485537   0.104917435678051   1.0000000
B2   B   0.905539162283884   0.809890544023004   0.105647636144008   1.0000000
B2   B   0.048117635676145   0.952519816027136   0.105030059385664   1.0000000
B2   B   0.048061385666766   0.095400649215021   0.105465558566920   1.0000000
B2   B   0.047838359406844   0.238077978856277   0.106940739814005   1.0000000
B2   B   0.047796409735672   0.380830106993431   0.107009947510564   1.0000000
B2   B   0.047866108532159   0.523577822086315   0.105904054656625   1.0000000
B2   B   0.047898237538303   0.666451342062232   0.105564446174372   1.0000000
B2   B   0.048017830023182   0.809487864197196   0.105235014200982   1.0000000
B2   B   0.190682543062411   0.952282475000973   0.105622618927054   1.0000000
B2   B   0.190696414487422   0.095223909443573   0.108914878368141   1.0000000
B2   B   0.190443678323887   0.237926563900067   0.114335326155431   1.0000000
B2   B   0.190222227904648   0.380658302241295   0.119110530449243   1.0000000
B2   B   0.190623884436696   0.523678251776523   0.113862272042114   1.0000000
B2   B   0.190756685153037   0.666397598989572   0.108981371190970   1.0000000
B2   B   0.190641576920366   0.809297587822737   0.106010170840423   1.0000000
B2   B   0.333352174797467   0.952227147094773   0.105286301446602   1.0000000
B2   B   0.333347575846580   0.095244081332059   0.107290806503601   1.0000000
B2   B   0.333203785503372   0.238105414228162   0.117295358919223   1.0000000
B2   B   0.331613662969952   0.379587758857286   0.138344746132300   1.0000000
B2   B   0.331983895887566   0.523419977635793   0.138545091723416   1.0000000
B2   B   0.333750506086957   0.666390658442408   0.118439304667850   1.0000000
B2   B   0.333387374414792   0.809272401122319   0.108446488012555   1.0000000
B2   B   0.476146222470461   0.952470517710364   0.105483571126290   1.0000000
B2   B   0.476113040020206   0.095105548801807   0.104635295942293   1.0000000
B2   B   0.476004323592564   0.237673434248954   0.107866367711513   1.0000000
B2   B   0.474515741761915   0.379467092515760   0.113666228317024   1.0000000
B2   B   0.477485709319346   0.668413240460469   0.127770713554038   1.0000000
B2   B   0.476254206714238   0.810212237456268   0.112280554263031   1.0000000
B2   B   0.619162915672559   0.952692902371941   0.105593894491221   1.0000000
B2   B   0.619000716958577   0.095237385352288   0.103543452636020   1.0000000
B2   B   0.619016572687526   0.238031900317966   0.103703707990925   1.0000000
B2   B   0.619107423737983   0.381023117613361   0.104140935619545   1.0000000
B2   B   0.621089914009036   0.525768887701986   0.104755155827868   1.0000000
B2   B   0.620748419460481   0.669002713707888   0.119299808528038   1.0000000
B2   B   0.619814840894557   0.810572499787793   0.112742293274934   1.0000000
B2   B   0.762459093577245   0.952860341464089   0.104823861196926   1.0000000
B2   B   0.762035415668523   0.095327715194839   0.102960258429972   1.0000000
B2   B   0.761909026666776   0.238001369101060   0.103090855353574   1.0000000
B2   B   0.761976026736119   0.380836490904994   0.103185669807894   1.0000000
B2   B   0.762720200613089   0.524085141773979   0.103569991102157   1.0000000
B2   B   0.762653375383019   0.667421661387872   0.106442484698550   1.0000000
B2   B   0.763445935030141   0.810856703461757   0.108359576419271   1.0000000
N2   N   0.952998357881810   0.905067750090562   0.104787107958769   1.0000000
N2   N   0.952948396343957   0.047973400238508   0.103476026637097   1.0000000
N2   N   0.952662611333817   0.190556874375051   0.103592558397031   1.0000000
N2   N   0.952574898526226   0.333239574506696   0.104029196348167   1.0000000
N2   N   0.952648164977394   0.475999889443622   0.104326946214756   1.0000000
N2   N   0.952681868938402   0.618932698130990   0.104940014314663   1.0000000
N2   N   0.952870340170638   0.762003762081850   0.105364985619445   1.0000000
N2   N   0.095547165938723   0.904718817862822   0.105120017318190   1.0000000
N2   N   0.095597342539150   0.047712461554001   0.105956423186016   1.0000000
N2   N   0.095492672496577   0.190529839983257   0.107828032645810   1.0000000
N2   N   0.095441355634977   0.333281819793575   0.110024510761221   1.0000000
N2   N   0.095551752407359   0.476050223668675   0.107708226365787   1.0000000
N2   N   0.095527249124964   0.618806495209293   0.106426047311359   1.0000000
N2   N   0.095475665496421   0.761707577187052   0.105582535198774   1.0000000
N2   N   0.238180057373461   0.904548720158417   0.105376362889145   1.0000000
N2   N   0.238194479361245   0.047522709663882   0.107142029265230   1.0000000
N2   N   0.238085944497536   0.190332719148698   0.114394377811420   1.0000000
N2   N   0.237593592752293   0.332809714193795   0.122576990351495   1.0000000
N2   N   0.238015978653707   0.476110038312238   0.122162443523843   1.0000000
N2   N   0.238468285799642   0.618899860205328   0.113742032372896   1.0000000
N2   N   0.238223690402364   0.761634380792605   0.107655003121760   1.0000000
N2   N   0.380936498307027   0.904548389167144   0.105951308583471   1.0000000
N2   N   0.380903782578646   0.047520937793147   0.105164114459347   1.0000000
N2   N   0.380807978051738   0.190521919441228   0.110188091271658   1.0000000
N2   N   0.380295947068827   0.333278281304021   0.126862918620099   1.0000000
N2   N   0.373512726237699   0.472191759332357   0.164747727024160   1.0000000
N2   N   0.381421373238249   0.619101787289991   0.129733335543699   1.0000000
N2   N   0.381085741422629   0.761720468494133   0.112624315401936   1.0000000
N2   N   0.523907502675536   0.905122386713463   0.106996422098883   1.0000000
N2   N   0.523764629143938   0.047595996961793   0.104048309423126   1.0000000
N2   N   0.523747902070594   0.190282485051694   0.104912521407198   1.0000000
N2   N   0.523683087958496   0.332732517595082   0.107972507184051   1.0000000
N2   N   0.528873318808468   0.471021216383343   0.100079674127810   1.0000000
N2   N   0.529417694867486   0.627289624673802   0.139582975548490   1.0000000
N2   N   0.524174193708586   0.763244773000221   0.117065755205128   1.0000000
N2   N   0.667092222628506   0.905312974029727   0.106808801248384   1.0000000
N2   N   0.666759609516930   0.047750303014635   0.103477017554761   1.0000000
N2   N   0.666653725462166   0.190418130044288   0.103270837649771   1.0000000
N2   N   0.666691546745479   0.333274432919329   0.103142520256606   1.0000000
N2   N   0.667720797261817   0.476462773939573   0.103112138834831   1.0000000
N2   N   0.667480331846050   0.620617801571287   0.108850038503289   1.0000000
N2   N   0.668728633327311   0.764066901645067   0.113393281186032   1.0000000
N2   N   0.810539798222023   0.905703798847210   0.105356645597130   1.0000000
N2   N   0.809869146510468   0.047898620193975   0.102910612794730   1.0000000
N2   N   0.809636580563733   0.190475739672252   0.102890682906859   1.0000000
N2   N   0.809601451527383   0.333203016475911   0.103273746358268   1.0000000
N2   N   0.809931525529210   0.476124499584369   0.103592639247760   1.0000000
N2   N   0.810015870154676   0.619394657827096   0.104449109216702   1.0000000
N2   N   0.810434978093738   0.762627238664390   0.107191289697268   1.0000000


