data_1
_audit_creation_method   'vasp2cif'
_cell_length_a    14.93631414619966
_cell_length_b    14.936314146199727
_cell_length_c    13.341276283792837
_cell_angle_alpha    90.0
_cell_angle_beta    90.0
_cell_angle_gamma    119.99999999999984

_symmetry_space_group_name_H-M    'P 1'
loop_
_atom_site_label
_atom_site_type_symbol
_atom_site_fract_x
_atom_site_fract_y
_atom_site_fract_z
_atom_site_occupancy
Sb2   Sb   0.555555555555557   0.444444444444443   0.375000000000000   1.0000000
N2   N   0.111097776323504   0.055553252545314   0.125074305120568   1.0000000
N2   N   0.611184050022224   0.555701433377818   0.119172521747339   1.0000000
N2   N   0.444453839843075   0.055573798820968   0.124945058320829   1.0000000
N2   N   0.944426201178968   0.555546160156898   0.124945058320829   1.0000000
N2   N   0.777787110522857   0.055560221928177   0.124929806788716   1.0000000
N2   N   0.111104551990048   0.722218942661616   0.624693309011867   1.0000000
N2   N   0.444453839843074   0.722213374355440   0.625054941679135   1.0000000
N2   N   0.277742253741949   0.222211699276526   0.626361976666740   1.0000000
N2   N   0.777788300723513   0.722257746257985   0.626361976666740   1.0000000
N2   N   0.611136112201243   0.222211699276526   0.626361976666740   1.0000000
N2   N   0.944439778071733   0.222212889476983   0.625070193211328   1.0000000
N2   N   0.277781057338285   0.722218942661616   0.125306690988088   1.0000000
N2   N   0.111073073119714   0.222203203226529   0.124700648582720   1.0000000
N2   N   0.444462417051238   0.222258167435779   0.122944155921547   1.0000000
N2   N   0.611136112201243   0.722257746257985   0.123638023333377   1.0000000
N2   N   0.944426201178967   0.722213374355440   0.124945058320829   1.0000000
N2   N   0.777796796773482   0.222203203226529   0.124700648582720   1.0000000
N2   N   0.111108347285915   0.888891652714086   0.624697106004856   1.0000000
N2   N   0.444449972094870   0.888891652714086   0.624697106004856   1.0000000
N2   N   0.277742253741950   0.388863887798661   0.626361976666740   1.0000000
N2   N   0.611184050022221   0.388815949977755   0.630827478252709   1.0000000
N2   N   0.777796796773482   0.888926926880271   0.625299351417168   1.0000000
N2   N   0.944446747454620   0.388877857111487   0.624925694879402   1.0000000
N2   N   0.111097776323505   0.388877857111487   0.125074305120568   1.0000000
N2   N   0.277781057338285   0.888895448009898   0.125306690988088   1.0000000
N2   N   0.611122142888218   0.888902223676467   0.125074305120568   1.0000000
N2   N   0.444298566622071   0.388815949977754   0.119172521747339   1.0000000
N2   N   0.944446747454620   0.888902223676467   0.125074305120568   1.0000000
N2   N   0.777788300723513   0.388863887798661   0.123638023333377   1.0000000
N2   N   0.277786625644505   0.555546160156898   0.625054941679135   1.0000000
N2   N   0.111097776323505   0.055553252545314   0.624925694879402   1.0000000
N2   N   0.611184050022224   0.555701433377818   0.630827478252709   1.0000000
N2   N   0.444453839843075   0.055573798820968   0.625054941679135   1.0000000
N2   N   0.944426201178968   0.555546160156898   0.625054941679135   1.0000000
N2   N   0.111108347285915   0.555550027904972   0.125302893995240   1.0000000
N2   N   0.777787110522857   0.055560221928177   0.625070193211328   1.0000000
N2   N   0.277786625644505   0.055573798820968   0.124945058320829   1.0000000
N2   N   0.444462417051237   0.555537582948794   0.122944155921547   1.0000000
N2   N   0.777741832564190   0.555537582948794   0.122944155921547   1.0000000
N2   N   0.611122142888218   0.055553252545314   0.125074305120568   1.0000000
N2   N   0.444462417051238   0.555537582948794   0.627055844078529   1.0000000
N2   N   0.944439778071733   0.055560221928177   0.124929806788716   1.0000000
N2   N   0.277781057338285   0.722218942661616   0.624693309011867   1.0000000
N2   N   0.111073073119715   0.222203203226529   0.625299351417168   1.0000000
N2   N   0.444462417051237   0.222258167435780   0.627055844078529   1.0000000
N2   N   0.611136112201243   0.722257746257985   0.626361976666740   1.0000000
N2   N   0.944426201178967   0.722213374355440   0.625054941679135   1.0000000
N2   N   0.777796796773482   0.222203203226529   0.625299351417168   1.0000000
N2   N   0.111104551990048   0.722218942661616   0.125306690988088   1.0000000
N2   N   0.444453839843075   0.722213374355440   0.124945058320829   1.0000000
N2   N   0.277742253741950   0.222211699276550   0.123638023333376   1.0000000
N2   N   0.777788300723513   0.722257746257985   0.123638023333384   1.0000000
N2   N   0.611136112201243   0.222211699276526   0.123638023333377   1.0000000
N2   N   0.944439778071733   0.222212889476983   0.124929806788716   1.0000000
N2   N   0.111097776323505   0.388877857111487   0.624925694879402   1.0000000
N2   N   0.277781057338285   0.888895448009898   0.624693309011867   1.0000000
N2   N   0.611122142888218   0.888902223676467   0.624925694879402   1.0000000
N2   N   0.444298566622071   0.388815949977755   0.630827478252709   1.0000000
N2   N   0.944446747454620   0.888902223676467   0.624925694879402   1.0000000
N2   N   0.111108347285914   0.888891652714086   0.125302893995240   1.0000000
N2   N   0.777788300723513   0.388863887798661   0.626361976666740   1.0000000
N2   N   0.444449972094870   0.888891652714086   0.125302893995240   1.0000000
N2   N   0.277742253741949   0.388863887798661   0.123638023333384   1.0000000
N2   N   0.277786625644505   0.555546160156898   0.124945058320829   1.0000000
N2   N   0.611184050022221   0.388815949977755   0.119172521747339   1.0000000
N2   N   0.777796796773482   0.888926926880271   0.124700648582720   1.0000000
N2   N   0.944446747454620   0.388877857111487   0.125074305120568   1.0000000
N2   N   0.111108347285915   0.555550027904972   0.624697106004856   1.0000000
N2   N   0.277786625644505   0.055573798820968   0.625054941679135   1.0000000
N2   N   0.777741832564187   0.555537582948794   0.627055844078529   1.0000000
N2   N   0.611122142888218   0.055553252545314   0.624925694879402   1.0000000
N2   N   0.944439778071733   0.055560221928177   0.625070193211328   1.0000000
N2   N   0.054071434371478   0.110130609984721   0.375000000000000   1.0000000
N2   N   0.555664576315425   0.623818081443562   0.375000000000000   1.0000000
N2   N   0.387154606373114   0.107642546079539   0.375000000000000   1.0000000
N2   N   0.892357453920429   0.612845393627128   0.375000000000000   1.0000000
N2   N   0.722725842279845   0.110130609984721   0.375000000000000   1.0000000
N2   N   0.055562816096749   0.777781777989145   0.875000000000000   1.0000000
N2   N   0.388885628558841   0.777781777989145   0.875000000000000   1.0000000
N2   N   0.222220758110897   0.277777045722157   0.875000000000000   1.0000000
N2   N   0.722222954277840   0.777779241889022   0.875000000000000   1.0000000
N2   N   0.555545111992101   0.277757201217754   0.875000000000000   1.0000000
N2   N   0.888890621183982   0.277780976012062   0.875000000000000   1.0000000
N2   N   0.222222222222221   0.777777777777779   0.375000000000000   1.0000000
N2   N   0.054071434371480   0.277274157720065   0.375000000000000   1.0000000
N2   N   0.376181918556469   0.265179828205040   0.375000000000000   1.0000000
N2   N   0.554975806160865   0.782861699686618   0.375000000000000   1.0000000
N2   N   0.894552560192479   0.782861699686614   0.375000000000000   1.0000000
N2   N   0.724592657159931   0.275407342840045   0.375000000000000   1.0000000
N2   N   0.055557332086165   0.944442667913905   0.875000000000000   1.0000000
N2   N   0.388885628558841   0.944437183903209   0.875000000000000   1.0000000
N2   N   0.222217006944796   0.444450544965048   0.875000000000000   1.0000000
N2   N   0.555555555555557   0.444444444444443   0.875000000000000   1.0000000
N2   N   0.722219023988002   0.944442978505121   0.875000000000000   1.0000000
N2   N   0.888900204687070   0.444450544965048   0.875000000000000   1.0000000
N2   N   0.055824898754443   0.444983130842216   0.375000000000000   1.0000000
N2   N   0.221690262156350   0.943041679638637   0.375000000000000   1.0000000
N2   N   0.555016869157682   0.944175101245679   0.375000000000000   1.0000000
N2   N   0.376181918556470   0.444335423684686   0.375000000000000   1.0000000
N2   N   0.889869390015298   0.945928565628485   0.375000000000000   1.0000000
N2   N   0.734820171795047   0.444335423684686   0.375000000000000   1.0000000
N2   N   0.222218222011073   0.611114371441053   0.875000000000000   1.0000000
N2   N   0.055557021494844   0.111109378816046   0.875000000000000   1.0000000
N2   N   0.555545111992101   0.611121244107615   0.875000000000000   1.0000000
N2   N   0.388879006576965   0.111091346487315   0.875000000000000   1.0000000
N2   N   0.888908653512728   0.611120993423111   0.875000000000000   1.0000000
N2   N   0.056958320361277   0.611981915850895   0.375000000000000   1.0000000
N2   N   0.722219023988002   0.111109378816046   0.875000000000000   1.0000000
N2   N   0.217138300313454   0.105447439807584   0.375000000000000   1.0000000
N2   N   0.387154606373114   0.612845393627129   0.375000000000000   1.0000000
N2   N   0.734820171795049   0.623818081443562   0.375000000000000   1.0000000
N2   N   0.554975806160864   0.105447439807586   0.375000000000000   1.0000000
N2   N   0.388879006576965   0.611120993423111   0.875000000000000   1.0000000
N2   N   0.888888888888886   0.111111111111114   0.375000000000000   1.0000000
N2   N   0.222222222222221   0.777777777777779   0.875000000000000   1.0000000
N2   N   0.055557021494845   0.277780976012062   0.875000000000000   1.0000000
N2   N   0.388878755892412   0.277757201217754   0.875000000000000   1.0000000
N2   N   0.555549455034803   0.777782993055121   0.875000000000000   1.0000000
N2   N   0.888900204687070   0.777782993055121   0.875000000000000   1.0000000
N2   N   0.722222954277840   0.277777045722157   0.875000000000000   1.0000000
N2   N   0.056958320361277   0.778309737843625   0.375000000000000   1.0000000
N2   N   0.388018084149088   0.778309737843625   0.375000000000000   1.0000000
N2   N   0.217481352346721   0.275407342840045   0.375000000000000   1.0000000
N2   N   0.724592657159931   0.782518647653246   0.375000000000000   1.0000000
N2   N   0.555664576315426   0.265179828205039   0.375000000000000   1.0000000
N2   N   0.889869390015185   0.277274157720065   0.375000000000000   1.0000000
N2   N   0.055557332086165   0.444447997505646   0.875000000000000   1.0000000
N2   N   0.222218222011073   0.944437183903209   0.875000000000000   1.0000000
N2   N   0.555552002494254   0.944442667913905   0.875000000000000   1.0000000
N2   N   0.388878755892412   0.444454888007898   0.875000000000000   1.0000000
N2   N   0.888890621183982   0.944442978505121   0.875000000000000   1.0000000
N2   N   0.055824898754443   0.944175101245679   0.375000000000000   1.0000000
N2   N   0.722242798782031   0.444454888007898   0.875000000000000   1.0000000
N2   N   0.388018084149088   0.943041679638637   0.375000000000000   1.0000000
N2   N   0.217138300313453   0.445024193839217   0.375000000000000   1.0000000
N2   N   0.221690262156350   0.611981915850853   0.375000000000000   1.0000000
N2   N   0.722725842279844   0.945928565628485   0.375000000000000   1.0000000
N2   N   0.894552560192480   0.445024193839218   0.375000000000000   1.0000000
N2   N   0.055562816096749   0.611114371441053   0.875000000000000   1.0000000
N2   N   0.222217006944796   0.111099795313032   0.875000000000000   1.0000000
N2   N   0.722242798782031   0.611121244107615   0.875000000000000   1.0000000
N2   N   0.555549455034803   0.111099795313032   0.875000000000000   1.0000000
N2   N   0.888888888888886   0.111111111111114   0.875000000000000   1.0000000
B2   B   0.108170760122670   0.053295462875949   0.375000000000000   1.0000000
B2   B   0.628130973671539   0.589595280676114   0.375000000000000   1.0000000
B2   B   0.443818727753945   0.053053555335968   0.375000000000000   1.0000000
B2   B   0.946946444663981   0.556181272246101   0.375000000000000   1.0000000
B2   B   0.778468834029778   0.055901083681487   0.375000000000000   1.0000000
B2   B   0.111110128399503   0.722221730866266   0.875000000000000   1.0000000
B2   B   0.444442712694754   0.722217720139012   0.875000000000000   1.0000000
B2   B   0.277799789914576   0.222233037057455   0.875000000000000   1.0000000
B2   B   0.777766962942487   0.722200210085457   0.875000000000000   1.0000000
B2   B   0.611099913809328   0.222233037057455   0.875000000000000   1.0000000
B2   B   0.944445097129534   0.222223527592291   0.875000000000000   1.0000000
B2   B   0.277389395476943   0.722610604522980   0.375000000000000   1.0000000
B2   B   0.107933394421904   0.220633363877609   0.375000000000000   1.0000000
B2   B   0.442126473194221   0.217586279721786   0.375000000000000   1.0000000
B2   B   0.612546330972645   0.731976606264819   0.375000000000000   1.0000000
B2   B   0.946946444663981   0.724098505751291   0.375000000000000   1.0000000
B2   B   0.779366636122554   0.220633363877609   0.375000000000000   1.0000000
B2   B   0.111110443030800   0.888889556969208   0.875000000000000   1.0000000
B2   B   0.444445780605094   0.888889556969208   0.875000000000000   1.0000000
B2   B   0.277799789914577   0.388900086190427   0.875000000000000   1.0000000
B2   B   0.611093597298683   0.388906402701372   0.875000000000000   1.0000000
B2   B   0.777772241058158   0.888877815449627   0.875000000000000   1.0000000
B2   B   0.944441811446118   0.388890931521414   0.875000000000000   1.0000000
B2   B   0.108170760122693   0.388208630580049   0.375000000000000   1.0000000
B2   B   0.277389395476943   0.888112124287215   0.375000000000000   1.0000000
B2   B   0.611791369419850   0.891829239877426   0.375000000000000   1.0000000
B2   B   0.410404719323829   0.371869026328607   0.375000000000000   1.0000000
B2   B   0.946704537124063   0.891829239877426   0.375000000000000   1.0000000
B2   B   0.786096941958661   0.387453669027377   0.375000000000000   1.0000000
B2   B   0.277782279860912   0.555557287305151   0.875000000000000   1.0000000
B2   B   0.111115786741910   0.055558188553847   0.875000000000000   1.0000000
B2   B   0.611093597298683   0.555520527930586   0.875000000000000   1.0000000
B2   B   0.444442712694754   0.055558325888943   0.875000000000000   1.0000000
B2   B   0.944441674111154   0.555557287305151   0.875000000000000   1.0000000
B2   B   0.111294897769072   0.555923128871391   0.375000000000000   1.0000000
B2   B   0.777776472407760   0.055554902870521   0.875000000000000   1.0000000
B2   B   0.275901494248701   0.053053555335968   0.375000000000000   1.0000000
B2   B   0.442126473194221   0.557873526805834   0.375000000000000   1.0000000
B2   B   0.782413720278221   0.557873526805834   0.375000000000000   1.0000000
B2   B   0.611791369419845   0.053295462875949   0.375000000000000   1.0000000
B2   B   0.444450481560763   0.555549518439255   0.875000000000000   1.0000000
B2   B   0.944098916318657   0.055901083681487   0.375000000000000   1.0000000
B2   B   0.277778269133539   0.722221730866266   0.875000000000000   1.0000000
B2   B   0.111122184550229   0.222227758941758   0.875000000000000   1.0000000
B2   B   0.444450481560764   0.222234296454949   0.875000000000000   1.0000000
B2   B   0.611099913809328   0.722200210085457   0.875000000000000   1.0000000
B2   B   0.944441674111154   0.722217720139012   0.875000000000000   1.0000000
B2   B   0.777772241058158   0.222227758941758   0.875000000000000   1.0000000
B2   B   0.111887875712764   0.722610604522980   0.375000000000000   1.0000000
B2   B   0.443818727753945   0.724098505751291   0.375000000000000   1.0000000
B2   B   0.268023393735319   0.213903058041278   0.375000000000000   1.0000000
B2   B   0.786096941958661   0.731976606264819   0.375000000000000   1.0000000
B2   B   0.612546330972647   0.213903058041278   0.375000000000000   1.0000000
B2   B   0.944098916318657   0.221531165970372   0.375000000000000   1.0000000
B2   B   0.111115786741910   0.388890931521414   0.875000000000000   1.0000000
B2   B   0.277778269133539   0.888889871600406   0.875000000000000   1.0000000
B2   B   0.611109068478543   0.888884213258125   0.875000000000000   1.0000000
B2   B   0.444479472069429   0.388906402701372   0.875000000000000   1.0000000
B2   B   0.944441811446118   0.888884213258125   0.875000000000000   1.0000000
B2   B   0.111294897769072   0.888705102231029   0.375000000000000   1.0000000
B2   B   0.777766962942487   0.388900086190427   0.875000000000000   1.0000000
B2   B   0.444076871128611   0.888705102231029   0.375000000000000   1.0000000
B2   B   0.268023393735344   0.387453669027377   0.375000000000000   1.0000000
B2   B   0.275901494248701   0.556181272246101   0.375000000000000   1.0000000
B2   B   0.628130973671540   0.371869026328606   0.375000000000000   1.0000000
B2   B   0.779366636122554   0.892066605578029   0.375000000000000   1.0000000
B2   B   0.946704537124063   0.388208630580049   0.375000000000000   1.0000000
B2   B   0.111110443030800   0.555554219395025   0.875000000000000   1.0000000
B2   B   0.277782279860912   0.055558325888943   0.875000000000000   1.0000000
B2   B   0.777765703545137   0.555549518439255   0.875000000000000   1.0000000
B2   B   0.611109068478543   0.055558188553847   0.875000000000000   1.0000000
B2   B   0.944445097129534   0.055554902870521   0.875000000000000   1.0000000
B2   B   0.055537891778595   0.111113375138206   0.124887806398526   1.0000000
B2   B   0.555633496867411   0.611068052726400   0.121748556663775   1.0000000
B2   B   0.388934111354813   0.111201556042850   0.124340220822355   1.0000000
B2   B   0.888798443957031   0.611065888645061   0.124340220822355   1.0000000
B2   B   0.722242150026394   0.111113375138206   0.124887806398526   1.0000000
B2   B   0.055526778704491   0.777769425575121   0.624819804816356   1.0000000
B2   B   0.388909313537206   0.777769425575121   0.624819804816356   1.0000000
B2   B   0.222199995332611   0.277766664332903   0.626111588331315   1.0000000
B2   B   0.722233335667046   0.777800004667530   0.626111588331315   1.0000000
B2   B   0.555633496867411   0.277898777474222   0.628251443336290   1.0000000
B2   B   0.888886624861796   0.277757849973739   0.625112193601476   1.0000000
B2   B   0.222222222222221   0.777777777777779   0.125274093252687   1.0000000
B2   B   0.055537891778595   0.277757849973739   0.124887806398526   1.0000000
B2   B   0.388931947273473   0.277898777474223   0.121748556663776   1.0000000
B2   B   0.555589456495325   0.777775770920509   0.124569763532392   1.0000000
B2   B   0.888852981091767   0.777775770920509   0.124569763532392   1.0000000
B2   B   0.722233335667046   0.277766664332903   0.123888411668748   1.0000000
B2   B   0.055544147523676   0.944455852476370   0.624844381745503   1.0000000
B2   B   0.388909313537206   0.944473221295563   0.624819804816356   1.0000000
B2   B   0.222224229079504   0.444410543504527   0.625430236467583   1.0000000
B2   B   0.555555555555557   0.444444444444443   0.629650177042085   1.0000000
B2   B   0.722242150026393   0.944462108221317   0.625112193601476   1.0000000
B2   B   0.888852981091767   0.444410543504527   0.625430236467583   1.0000000
B2   B   0.055544147523678   0.444421628380710   0.125155618254702   1.0000000
B2   B   0.222230574425005   0.944473221295563   0.125180195183681   1.0000000
B2   B   0.555578371619283   0.944455852476370   0.125155618254702   1.0000000
B2   B   0.388931947273474   0.444366503132623   0.121748556663775   1.0000000
B2   B   0.888886624861796   0.944462108221317   0.124887806398526   1.0000000
B2   B   0.722101222525585   0.444366503132623   0.121748556663775   1.0000000
B2   B   0.222230574425005   0.611090686462912   0.624819804816356   1.0000000
B2   B   0.055537891778595   0.111113375138206   0.625112193601476   1.0000000
B2   B   0.555633496867411   0.611068052726400   0.628251443336290   1.0000000
B2   B   0.388934111354813   0.111201556042850   0.625659779177616   1.0000000
B2   B   0.888798443957031   0.611065888645061   0.625659779177616   1.0000000
B2   B   0.055526778704491   0.611090686462912   0.125180195183681   1.0000000
B2   B   0.722242150026393   0.111113375138206   0.625112193601476   1.0000000
B2   B   0.222224229079504   0.111147018908243   0.124569763532392   1.0000000
B2   B   0.388934111354813   0.611065888645061   0.124340220822355   1.0000000
B2   B   0.722101222525586   0.611068052726400   0.121748556663775   1.0000000
B2   B   0.555589456495325   0.111147018908243   0.124569763532392   1.0000000
B2   B   0.388934111354814   0.611065888645061   0.625659779177616   1.0000000
B2   B   0.888888888888886   0.111111111111114   0.124897273890970   1.0000000
B2   B   0.222222222222221   0.777777777777779   0.624725906747304   1.0000000
B2   B   0.055537891778595   0.277757849973739   0.625112193601476   1.0000000
B2   B   0.388931947273473   0.277898777474224   0.628251443336290   1.0000000
B2   B   0.555589456495324   0.777775770920509   0.625430236467583   1.0000000
B2   B   0.888852981091767   0.777775770920509   0.625430236467583   1.0000000
B2   B   0.722233335667046   0.277766664332903   0.626111588331315   1.0000000
B2   B   0.055526778704491   0.777769425575121   0.125180195183681   1.0000000
B2   B   0.388909313537206   0.777769425575121   0.125180195183681   1.0000000
B2   B   0.222199995332612   0.277766664332903   0.123888411668748   1.0000000
B2   B   0.722233335667046   0.777800004667530   0.123888411668748   1.0000000
B2   B   0.555633496867411   0.277898777474222   0.121748556663775   1.0000000
B2   B   0.888886624861796   0.277757849973739   0.124887806398526   1.0000000
B2   B   0.055544147523676   0.444421628380710   0.624844381745503   1.0000000
B2   B   0.222230574425005   0.944473221295563   0.624819804816356   1.0000000
B2   B   0.555578371619283   0.944455852476370   0.624844381745503   1.0000000
B2   B   0.388931947273473   0.444366503132623   0.628251443336290   1.0000000
B2   B   0.888886624861796   0.944462108221317   0.625112193601476   1.0000000
B2   B   0.055544147523676   0.944455852476370   0.125155618254702   1.0000000
B2   B   0.722101222525586   0.444366503132623   0.628251443336290   1.0000000
B2   B   0.388909313537206   0.944473221295563   0.125180195183681   1.0000000
B2   B   0.222224229079504   0.444410543504527   0.124569763532392   1.0000000
B2   B   0.222230574425005   0.611090686462912   0.125180195183681   1.0000000
B2   B   0.555555555555557   0.444444444444443   0.120349822957788   1.0000000
B2   B   0.722242150026393   0.944462108221317   0.124887806398526   1.0000000
B2   B   0.888852981091767   0.444410543504527   0.124569763532392   1.0000000
B2   B   0.055526778704492   0.611090686462912   0.624819804816356   1.0000000
B2   B   0.222224229079504   0.111147018908243   0.625430236467583   1.0000000
B2   B   0.722101222525586   0.611068052726400   0.628251443336290   1.0000000
B2   B   0.555589456495325   0.111147018908243   0.625430236467583   1.0000000
B2   B   0.888888888888886   0.111111111111114   0.625102726108954   1.0000000


