data_1
_audit_creation_method   'vasp2cif'
_cell_length_a    17.52789999999977
_cell_length_b    17.52789999999977
_cell_length_c    15.0
_cell_angle_alpha    90.0
_cell_angle_beta    90.0
_cell_angle_gamma    119.99999999999916

_symmetry_space_group_name_H-M    'P 1'
loop_
_atom_site_label
_atom_site_type_symbol
_atom_site_fract_x
_atom_site_fract_y
_atom_site_fract_z
_atom_site_occupancy
B2   B   0.905535857199504   0.953755405339423   0.111030117933676   1.0000000
B2   B   0.904053606231247   0.095947274120713   0.111030716213184   1.0000000
B2   B   0.903574501987637   0.238709600222910   0.111036284744532   1.0000000
B2   B   0.903728988153162   0.381561715391636   0.111008395526768   1.0000000
B2   B   0.904793152263776   0.524476403328056   0.111014220973473   1.0000000
B2   B   0.906467748183215   0.667770768065302   0.111064560095547   1.0000000
B2   B   0.907187679348354   0.811609494978804   0.111047204425077   1.0000000
B2   B   0.047800890915227   0.952201195810222   0.110993825356416   1.0000000
B2   B   0.046246570700483   0.094466172328270   0.111045270472530   1.0000000
B2   B   0.045823822400116   0.237681580477658   0.111024267003340   1.0000000
B2   B   0.046346287707267   0.380894589155955   0.111005438268642   1.0000000
B2   B   0.047625419864652   0.523792925408699   0.111003161317481   1.0000000
B2   B   0.048555947057512   0.666666400041522   0.111025259928186   1.0000000
B2   B   0.048641510548471   0.809599660367710   0.111027857776970   1.0000000
B2   B   0.190402452444365   0.951360699517361   0.111003096634911   1.0000000
B2   B   0.188392396033870   0.092814446647488   0.111040906677177   1.0000000
B2   B   0.186775739700967   0.235059388063523   0.111031475029229   1.0000000
B2   B   0.188109563499445   0.379593019642874   0.111015167076124   1.0000000
B2   B   0.190568379629006   0.523015136521312   0.111012846641265   1.0000000
B2   B   0.191391422053881   0.666010083640470   0.111002102717566   1.0000000
B2   B   0.191144544298490   0.808857731292605   0.110999945695496   1.0000000
B2   B   0.333336011745530   0.951446552648492   0.111015108603492   1.0000000
B2   B   0.332230501844549   0.093534304122569   0.111049834846307   1.0000000
B2   B   0.328403829985378   0.232840816558704   0.111042160406239   1.0000000
B2   B   0.326462431735071   0.375408216420014   0.111056933802275   1.0000000
B2   B   0.333715864694137   0.521357385206724   0.111033423466833   1.0000000
B2   B   0.334720110624230   0.665282845689165   0.111018082641657   1.0000000
B2   B   0.333992566961439   0.808611018927216   0.111014405718574   1.0000000
B2   B   0.476210058254910   0.952376122944966   0.111005929605933   1.0000000
B2   B   0.475525197801867   0.095209106284406   0.111011753993111   1.0000000
B2   B   0.474311887907636   0.237559214042219   0.111017496164367   1.0000000
B2   B   0.466376674522732   0.372876799712822   0.111100742314235   1.0000000
B2   B   0.478644587349752   0.666284706349239   0.111051795256974   1.0000000
B2   B   0.476987901233453   0.809433580377836   0.111027745400046   1.0000000
B2   B   0.619105457842389   0.953654785978986   0.111009334419110   1.0000000
B2   B   0.618438920511550   0.096272637744526   0.111016514909582   1.0000000
B2   B   0.617885899048595   0.239331480002082   0.111034696533754   1.0000000
B2   B   0.617136544275431   0.382865566160285   0.111019096961428   1.0000000
B2   B   0.627125075682282   0.533625022511299   0.111104070685886   1.0000000
B2   B   0.624593405046085   0.673537925026523   0.111077936861371   1.0000000
B2   B   0.620409548154083   0.811892663276017   0.111022274908121   1.0000000
B2   B   0.762320152505247   0.954178034233435   0.111016212837071   1.0000000
B2   B   0.761288162580743   0.096424237374436   0.111048293549113   1.0000000
B2   B   0.760836259105928   0.239164790378166   0.111049601186596   1.0000000
B2   B   0.760670485722843   0.382115957398192   0.111043445223456   1.0000000
B2   B   0.762442918112060   0.525690177651015   0.111025495068822   1.0000000
B2   B   0.767161305836131   0.671598142229588   0.111040411135664   1.0000000
B2   B   0.764942696293917   0.813226357240651   0.111022211397746   1.0000000
Ge2   Ge   0.495602984444201   0.504398772159648   0.110811637618222   1.0000000
N2   N   0.953338247729663   0.906073838836716   0.111003398431717   1.0000000
N2   N   0.951742036943535   0.048259873753033   0.111033016417163   1.0000000
N2   N   0.950956523386799   0.190859407187581   0.111022835184759   1.0000000
N2   N   0.951104230391064   0.333792002412948   0.110995724918434   1.0000000
N2   N   0.952086909178642   0.476662708746377   0.111001401943656   1.0000000
N2   N   0.953280935170307   0.619566545103913   0.111013304664160   1.0000000
N2   N   0.953767307341731   0.762826008701504   0.111046296854529   1.0000000
N2   N   0.095506509564002   0.904495594495538   0.110973440047879   1.0000000
N2   N   0.093928149168751   0.046663871556642   0.111012428875773   1.0000000
N2   N   0.092492153475265   0.189006867382895   0.111025251647075   1.0000000
N2   N   0.093168552836238   0.332720994542455   0.111000374099470   1.0000000
N2   N   0.094970310380689   0.476010794658766   0.110999901690405   1.0000000
N2   N   0.095938797084484   0.618896415754936   0.110986573347641   1.0000000
N2   N   0.096031334154083   0.761730249618774   0.111014453332000   1.0000000
N2   N   0.238271921381788   0.903970914697474   0.110991850780953   1.0000000
N2   N   0.237175769422050   0.046234879457696   0.111012443007567   1.0000000
N2   N   0.234243062522751   0.187045132583908   0.111026177475852   1.0000000
N2   N   0.232763997385899   0.329359443296235   0.111003942251877   1.0000000
N2   N   0.237551504925288   0.474859852919034   0.111016825757327   1.0000000
N2   N   0.239034095892444   0.618287772679092   0.110985494348208   1.0000000
N2   N   0.238776993804270   0.761225328364467   0.110999871001154   1.0000000
N2   N   0.381105578288494   0.904063349081878   0.110989122152784   1.0000000
N2   N   0.380435225649821   0.046721451554005   0.111009582041221   1.0000000
N2   N   0.379050822959372   0.188536917689441   0.111025776975381   1.0000000
N2   N   0.373429566843400   0.326638960491122   0.111067325951600   1.0000000
N2   N   0.375391260168700   0.468587581646831   0.111015168516924   1.0000000
N2   N   0.382609536098868   0.617392443512156   0.110994156132236   1.0000000
N2   N   0.381715092764389   0.760968378644824   0.111013548082110   1.0000000
N2   N   0.523989727129550   0.905030622910216   0.111002418911882   1.0000000
N2   N   0.523338383472559   0.047915305973837   0.111006021565272   1.0000000
N2   N   0.522637875939898   0.190852802018165   0.111009386927994   1.0000000
N2   N   0.521239414041742   0.333892052486823   0.111013762973008   1.0000000
N2   N   0.531413671837557   0.624608474990416   0.111051343744666   1.0000000
N2   N   0.525142413795057   0.762449567880600   0.111035075243302   1.0000000
N2   N   0.667280609809136   0.906833479466404   0.110992795598467   1.0000000
N2   N   0.666207111917383   0.048895930317809   0.111016168615884   1.0000000
N2   N   0.665606927147199   0.191729190143974   0.111016789487570   1.0000000
N2   N   0.664955510655494   0.335046496109239   0.111012998245186   1.0000000
N2   N   0.666110140549570   0.478762704827495   0.111017216796864   1.0000000
N2   N   0.673363100652149   0.626571883544599   0.111069615044835   1.0000000
N2   N   0.670642296863101   0.767237024477596   0.111017237680867   1.0000000
N2   N   0.810995497275022   0.907510185716148   0.111001889994504   1.0000000
N2   N   0.809141677294316   0.049045169734213   0.111031636482287   1.0000000
N2   N   0.808454435410117   0.191545021155291   0.111030272083785   1.0000000
N2   N   0.808272643244547   0.334394658074058   0.111019700443359   1.0000000
N2   N   0.809149446313468   0.477364105165088   0.111022061999190   1.0000000
N2   N   0.811465218765453   0.620951064465950   0.111030127998633   1.0000000
N2   N   0.812956920045080   0.765758735711103   0.111019181887003   1.0000000


