data_1
_audit_creation_method   'vasp2cif'
_cell_length_a    17.52789999999977
_cell_length_b    17.52789999999977
_cell_length_c    15.0
_cell_angle_alpha    90.0
_cell_angle_beta    90.0
_cell_angle_gamma    119.99999999999916

_symmetry_space_group_name_H-M    'P 1'
loop_
_atom_site_label
_atom_site_type_symbol
_atom_site_fract_x
_atom_site_fract_y
_atom_site_fract_z
_atom_site_occupancy
B2   B   0.907811846590247   0.954689257599378   0.110965263849041   1.0000000
B2   B   0.903938370938605   0.094779229534091   0.111034076223075   1.0000000
B2   B   0.902638213225044   0.236955339861577   0.111064186794807   1.0000000
B2   B   0.902569693902865   0.380001878989509   0.110983856795676   1.0000000
B2   B   0.904050608598977   0.523481000756642   0.110969155722714   1.0000000
B2   B   0.908082029385351   0.667626084421906   0.111021750772422   1.0000000
B2   B   0.909334796596554   0.811980201322843   0.110982846483900   1.0000000
B2   B   0.049870866539510   0.953648859786352   0.111008205421315   1.0000000
B2   B   0.048594080323456   0.096192528824346   0.110945730456446   1.0000000
B2   B   0.045857705288721   0.237094167011736   0.110914536974884   1.0000000
B2   B   0.044893885920124   0.379638629734864   0.110906962026915   1.0000000
B2   B   0.045699058776933   0.522976503769515   0.110940872798564   1.0000000
B2   B   0.048499059089495   0.666592374967452   0.111046295938123   1.0000000
B2   B   0.049963411409986   0.810297697766767   0.111070644364054   1.0000000
B2   B   0.191790062865288   0.952651797744227   0.111044841010375   1.0000000
B2   B   0.191082690254342   0.095658018552567   0.110966328749006   1.0000000
B2   B   0.190313624728593   0.238599904081389   0.110956427054762   1.0000000
B2   B   0.187116350237441   0.379252468909789   0.110911916860178   1.0000000
B2   B   0.186874621998400   0.522436740974537   0.110863039105216   1.0000000
B2   B   0.189839711735533   0.665773156076975   0.110981083192901   1.0000000
B2   B   0.191552981337275   0.809215016557758   0.111038043815226   1.0000000
B2   B   0.333902689412190   0.951555572294539   0.111082328437126   1.0000000
B2   B   0.333645643642828   0.095319333411478   0.111030871081533   1.0000000
B2   B   0.332490569429181   0.238263232134103   0.111139832566897   1.0000000
B2   B   0.332737316277505   0.381940361536085   0.111274227362132   1.0000000
B2   B   0.326147295383442   0.521602367520204   0.111117827570852   1.0000000
B2   B   0.331526245677674   0.664423403264159   0.111026191353520   1.0000000
B2   B   0.333722273276123   0.807773853784186   0.111048801253330   1.0000000
B2   B   0.475900401030295   0.948991300485399   0.111058178423618   1.0000000
B2   B   0.475756990410236   0.094450129745108   0.111021806535273   1.0000000
B2   B   0.475440196393084   0.239638448476439   0.111101004324773   1.0000000
B2   B   0.473348853364624   0.384587427891542   0.111303879576207   1.0000000
B2   B   0.470552158255037   0.648314170110311   0.111170851368444   1.0000000
B2   B   0.475827514026840   0.801867653725798   0.111097003262872   1.0000000
B2   B   0.617785810460887   0.949790149849769   0.111061741506252   1.0000000
B2   B   0.617620223079726   0.093714812378057   0.111062772919132   1.0000000
B2   B   0.617460103043439   0.237867008900140   0.110950789619889   1.0000000
B2   B   0.617576777638092   0.382206992930271   0.111114890334212   1.0000000
B2   B   0.620880978952937   0.527749671651397   0.111130253248145   1.0000000
B2   B   0.648251637132720   0.681508766691251   0.110953798017719   1.0000000
B2   B   0.617971958883207   0.806829171844370   0.110988707125986   1.0000000
B2   B   0.761550278148878   0.951797906429194   0.110985166757611   1.0000000
B2   B   0.760193975858527   0.093919074019632   0.111118280127669   1.0000000
B2   B   0.759852421375524   0.237079996209896   0.111047433411710   1.0000000
B2   B   0.760152031622295   0.380595439588607   0.110957927384919   1.0000000
B2   B   0.762140053156150   0.524275501709059   0.111035916451434   1.0000000
B2   B   0.770628854262325   0.670194833377703   0.110978124077559   1.0000000
B2   B   0.769395614153405   0.814630675779723   0.110876684477975   1.0000000
C2   C   0.469389375862399   0.540481743860893   0.111076325640698   1.0000000
C2   C   0.520406808323097   0.489411984310498   0.111043928652212   1.0000000
N2   N   0.954957505572990   0.906558566758772   0.110985672973614   1.0000000
N2   N   0.953514247077916   0.048959549517079   0.110974495225412   1.0000000
N2   N   0.950813006578902   0.189695599567038   0.111012194520742   1.0000000
N2   N   0.949999880207393   0.332161196747206   0.110995075030411   1.0000000
N2   N   0.950647121853918   0.475314581313525   0.110944809060266   1.0000000
N2   N   0.953440453675539   0.618856780170095   0.111008130249429   1.0000000
N2   N   0.954950188883730   0.762832156620636   0.111042398528096   1.0000000
N2   N   0.096844997838249   0.905428212271107   0.111024370728759   1.0000000
N2   N   0.096291722701965   0.048603358797261   0.110948141733591   1.0000000
N2   N   0.095354079855709   0.191250233050689   0.110884573832646   1.0000000
N2   N   0.092819994275528   0.332091064127782   0.110845350833243   1.0000000
N2   N   0.092475556918472   0.474812918778892   0.110861463982394   1.0000000
N2   N   0.094857945389415   0.618216197043205   0.110986215374812   1.0000000
N2   N   0.096484896127406   0.761831483826239   0.111036592089125   1.0000000
N2   N   0.238951967361331   0.904441511547837   0.111047866540944   1.0000000
N2   N   0.238747837636598   0.048033316613590   0.111003159549386   1.0000000
N2   N   0.237895644903909   0.191099849654649   0.110932690617900   1.0000000
N2   N   0.238045904970015   0.334762046590223   0.111038531180265   1.0000000
N2   N   0.233389606506801   0.473900088943944   0.110874788492836   1.0000000
N2   N   0.236618776503793   0.617340428525640   0.110892340839553   1.0000000
N2   N   0.238592411100670   0.760841016191965   0.111013780523378   1.0000000
N2   N   0.381041297912769   0.902835394803947   0.111061009003520   1.0000000
N2   N   0.380885251854115   0.047106959999085   0.111046578068332   1.0000000
N2   N   0.380554838921557   0.191280113552919   0.111025480955982   1.0000000
N2   N   0.379195214954591   0.334154517385436   0.111383070142691   1.0000000
N2   N   0.380299995664305   0.480364495531810   0.111207533437770   1.0000000
N2   N   0.377424598076837   0.614699890649941   0.111135139185180   1.0000000
N2   N   0.380930277606577   0.758702250580311   0.111031881526384   1.0000000
N2   N   0.522785459693074   0.898870345556751   0.111054656823683   1.0000000
N2   N   0.522687229763545   0.045245148828093   0.111024042846341   1.0000000
N2   N   0.522492293820467   0.190773028002595   0.110959207159178   1.0000000
N2   N   0.521975158269368   0.336800562719109   0.111239560299270   1.0000000
N2   N   0.522814796945407   0.748929037314268   0.111100415659347   1.0000000
N2   N   0.665379664284343   0.901906734728342   0.110977544256304   1.0000000
N2   N   0.664892005520974   0.045336908764124   0.111089030036567   1.0000000
N2   N   0.664652861789730   0.189482026203460   0.110983951298949   1.0000000
N2   N   0.664563718483555   0.333842891878108   0.110943772385357   1.0000000
N2   N   0.665983624399643   0.478118349658260   0.111137705002951   1.0000000
N2   N   0.674735582270341   0.621519058361130   0.111044197789505   1.0000000
N2   N   0.673055982903359   0.767375806481398   0.110887131501721   1.0000000
N2   N   0.812675555923194   0.907489351732584   0.110900874576613   1.0000000
N2   N   0.808352763976612   0.046607136556155   0.111050192065341   1.0000000
N2   N   0.807417567300937   0.189204149067751   0.111102836496388   1.0000000
N2   N   0.807288147745996   0.332548101226778   0.110969394191390   1.0000000
N2   N   0.808470703433263   0.476046623340160   0.110938726457425   1.0000000
N2   N   0.813001999764029   0.619758700263166   0.110971085504361   1.0000000
N2   N   0.814394311624701   0.764685995189356   0.110854887819385   1.0000000


