data_1
_audit_creation_method   'vasp2cif'
_cell_length_a    14.93631414619966
_cell_length_b    14.936314146199727
_cell_length_c    13.341276283792837
_cell_angle_alpha    90.0
_cell_angle_beta    90.0
_cell_angle_gamma    119.99999999999984

_symmetry_space_group_name_H-M    'P 1'
loop_
_atom_site_label
_atom_site_type_symbol
_atom_site_fract_x
_atom_site_fract_y
_atom_site_fract_z
_atom_site_occupancy
Ge2   Ge   0.485453119551426   0.409393226442363   0.375000000000000   1.0000000
N2   N   0.111148696024738   0.055558697063824   0.125039193060502   1.0000000
N2   N   0.611150999667378   0.555612571310123   0.125605386563576   1.0000000
N2   N   0.444443629783049   0.055524003799811   0.125070802954202   1.0000000
N2   N   0.944454348484763   0.555564439734156   0.125170158111854   1.0000000
N2   N   0.777805717219299   0.055569525276320   0.125062359303232   1.0000000
N2   N   0.111108615867749   0.722220974600553   0.624899231979592   1.0000000
N2   N   0.444443629783049   0.722252959316564   0.624929197045792   1.0000000
N2   N   0.277850604360737   0.222238071147689   0.624863858537984   1.0000000
N2   N   0.777804451096657   0.722241548171609   0.624789238878810   1.0000000
N2   N   0.611119150136864   0.222193006071562   0.624934355353432   1.0000000
N2   N   0.944493578735682   0.222250496311903   0.624882509019725   1.0000000
N2   N   0.277770493201882   0.722231447828401   0.125126709920463   1.0000000
N2   N   0.111193178678105   0.222263256005715   0.125078841799658   1.0000000
N2   N   0.444472909177429   0.222201901302857   0.125279989046889   1.0000000
N2   N   0.611119150136863   0.722259477398653   0.125065644646559   1.0000000
N2   N   0.944454348484763   0.722223242083987   0.125170158111854   1.0000000
N2   N   0.777799887968909   0.222230541235428   0.125107056717569   1.0000000
N2   N   0.111115703994161   0.888876901830168   0.624873869207495   1.0000000
N2   N   0.444437456759900   0.888885395046582   0.624865252966830   1.0000000
N2   N   0.277850604360737   0.388945866546374   0.624863858537984   1.0000000
N2   N   0.611150999667378   0.388871761690619   0.624394613436405   1.0000000
N2   N   0.777799887968909   0.888902680066815   0.624892943282418   1.0000000
N2   N   0.944472283518400   0.388907452687346   0.624868711615170   1.0000000
N2   N   0.111148696024738   0.388923332294236   0.125039193060502   1.0000000
N2   N   0.277770493201882   0.888872378706817   0.125126709920463   1.0000000
N2   N   0.611117844910884   0.888907490565566   0.125074297651664   1.0000000
N2   N   0.444607825873123   0.388970579603239   0.128717516994022   1.0000000
N2   N   0.944472283518404   0.888898164164391   0.125131288384851   1.0000000
N2   N   0.777804451096657   0.388896236258394   0.125210761121196   1.0000000
N2   N   0.277789748378026   0.555590866427996   0.624931327374243   1.0000000
N2   N   0.111148696024738   0.055558697063824   0.624960806939496   1.0000000
N2   N   0.611150999667378   0.555612571310123   0.624394613436405   1.0000000
N2   N   0.444443629783049   0.055524003799811   0.624929197045792   1.0000000
N2   N   0.944454348484763   0.555564439734156   0.624829841888147   1.0000000
N2   N   0.111115703994161   0.555572135497345   0.125126130792499   1.0000000
N2   N   0.777805717219299   0.055569525276320   0.624937640696768   1.0000000
N2   N   0.277789748378026   0.055532215283361   0.125068672625763   1.0000000
N2   N   0.444472909177429   0.555604341207904   0.125279989046889   1.0000000
N2   N   0.777783987546463   0.555558660439886   0.125375044937741   1.0000000
N2   N   0.611117844910884   0.055543687678637   0.125074297651664   1.0000000
N2   N   0.444472909177429   0.555604341207903   0.624720010953096   1.0000000
N2   N   0.944493578735682   0.055576415757136   0.125117490980276   1.0000000
N2   N   0.277770493201882   0.722231447828401   0.624873290079537   1.0000000
N2   N   0.111193178678105   0.222263256005715   0.624921158200358   1.0000000
N2   N   0.444472909177429   0.222201901302857   0.624720010953096   1.0000000
N2   N   0.611119150136863   0.722259477398653   0.624934355353432   1.0000000
N2   N   0.944454348484763   0.722223242083987   0.624829841888147   1.0000000
N2   N   0.777799887968909   0.222230541235428   0.624892943282418   1.0000000
N2   N   0.111108615867749   0.722220974600553   0.125100768020423   1.0000000
N2   N   0.444443629783049   0.722252959316564   0.125070802954202   1.0000000
N2   N   0.277850604360737   0.222238071147689   0.125136141462028   1.0000000
N2   N   0.777804451096657   0.722241548171609   0.125210761121196   1.0000000
N2   N   0.611119150136863   0.222193006071562   0.125065644646558   1.0000000
N2   N   0.944493578735682   0.222250496311902   0.125117490980276   1.0000000
N2   N   0.111148696024739   0.388923332294236   0.624960806939496   1.0000000
N2   N   0.277770493201882   0.888872378706817   0.624873290079537   1.0000000
N2   N   0.611117844910884   0.888907490565566   0.624925702348321   1.0000000
N2   N   0.444607825873124   0.388970579603239   0.621282483005971   1.0000000
N2   N   0.944472283518400   0.888898164164391   0.624868711615170   1.0000000
N2   N   0.111115703994161   0.888876901830168   0.125126130792499   1.0000000
N2   N   0.777804451096657   0.388896236258394   0.624789238878810   1.0000000
N2   N   0.444437456759900   0.888885395046582   0.125134747033171   1.0000000
N2   N   0.277850604360737   0.388945866546374   0.125136141462028   1.0000000
N2   N   0.277789748378025   0.555590866427996   0.125068672625763   1.0000000
N2   N   0.611150999667374   0.388871761690619   0.125605386563577   1.0000000
N2   N   0.777799887968909   0.888902680066819   0.125107056717570   1.0000000
N2   N   0.944472283518404   0.388907452687346   0.125131288384851   1.0000000
N2   N   0.111115703994161   0.555572135497345   0.624873869207495   1.0000000
N2   N   0.277789748378026   0.055532215283361   0.624931327374243   1.0000000
N2   N   0.777783987546462   0.555558660439886   0.624624955062256   1.0000000
N2   N   0.611117844910884   0.055543687678637   0.624925702348321   1.0000000
N2   N   0.944493578735682   0.055576415757136   0.624882509019725   1.0000000
N2   N   0.058871950748719   0.112978678322824   0.375000000000000   1.0000000
N2   N   0.556179636905974   0.619506410905900   0.375000000000000   1.0000000
N2   N   0.388685707967650   0.106319861094316   0.375000000000000   1.0000000
N2   N   0.885896907371293   0.609615120352323   0.375000000000000   1.0000000
N2   N   0.724609207666487   0.111486100410585   0.375000000000000   1.0000000
N2   N   0.055521600561689   0.777762821555893   0.875000000000000   1.0000000
N2   N   0.388866869783189   0.777764876252576   0.875000000000000   1.0000000
N2   N   0.222185688041288   0.277759510687318   0.875000000000000   1.0000000
N2   N   0.722196368417344   0.777766469855487   0.875000000000000   1.0000000
N2   N   0.555527112989580   0.277764378147714   0.875000000000000   1.0000000
N2   N   0.888862454125267   0.277763920908580   0.875000000000000   1.0000000
N2   N   0.221125978123871   0.777229655728606   0.375000000000000   1.0000000
N2   N   0.058871950748718   0.279226605759224   0.375000000000000   1.0000000
N2   N   0.392400926180327   0.272489244414706   0.375000000000000   1.0000000
N2   N   0.556620766372845   0.781945951445798   0.375000000000000   1.0000000
N2   N   0.888706560263047   0.778122514608518   0.375000000000000   1.0000000
N2   N   0.724006083300216   0.276571968836911   0.375000000000000   1.0000000
N2   N   0.055523217560940   0.944430288820021   0.875000000000000   1.0000000
N2   N   0.388866869783189   0.944435326863947   0.875000000000000   1.0000000
N2   N   0.222187822234733   0.444423075210338   0.875000000000000   1.0000000
N2   N   0.555514601317459   0.444423967325394   0.875000000000000   1.0000000
N2   N   0.722196648821058   0.944432103473741   0.875000000000000   1.0000000
N2   N   0.888859092803988   0.444427173661841   0.875000000000000   1.0000000
N2   N   0.056482979438753   0.444969919710292   0.375000000000000   1.0000000
N2   N   0.221543647793279   0.943027396704154   0.375000000000000   1.0000000
N2   N   0.556673717409756   0.945003525371542   0.375000000000000   1.0000000
N2   N   0.392400926180327   0.453245015098944   0.375000000000000   1.0000000
N2   N   0.891340105209660   0.946348530507341   0.375000000000000   1.0000000
N2   N   0.719841814593282   0.442006523161847   0.375000000000000   1.0000000
N2   N   0.222193642499369   0.611091846912279   0.875000000000000   1.0000000
N2   N   0.055521241917261   0.111094364955872   0.875000000000000   1.0000000
N2   N   0.555527112989580   0.611096068175212   0.875000000000000   1.0000000
N2   N   0.388864517897236   0.111105393955846   0.875000000000000   1.0000000
N2   N   0.888851112955954   0.611092223144663   0.875000000000000   1.0000000
N2   N   0.054067402095519   0.610631168837528   0.375000000000000   1.0000000
N2   N   0.722196648821058   0.111097878680668   0.875000000000000   1.0000000
N2   N   0.224260848330272   0.111343055727505   0.375000000000000   1.0000000
N2   N   0.388685707967650   0.615699180206661   0.375000000000000   1.0000000
N2   N   0.719841814593285   0.611168624764783   0.375000000000000   1.0000000
N2   N   0.556620766372842   0.108008148260386   0.375000000000000   1.0000000
N2   N   0.388864517897236   0.611092457274748   0.875000000000000   1.0000000
N2   N   0.891965110030614   0.112649221681991   0.375000000000000   1.0000000
N2   N   0.222195168730732   0.777764251032040   0.875000000000000   1.0000000
N2   N   0.055521241917261   0.277760210294727   0.875000000000000   1.0000000
N2   N   0.388861481304480   0.277773814824387   0.875000000000000   1.0000000
N2   N   0.555531073640132   0.777766290517088   0.875000000000000   1.0000000
N2   N   0.888859092803988   0.777765252475539   0.875000000000000   1.0000000
N2   N   0.722196368417344   0.277763231895192   0.875000000000000   1.0000000
N2   N   0.054067402095519   0.776769566591325   0.375000000000000   1.0000000
N2   N   0.388646545362116   0.779130541553741   0.375000000000000   1.0000000
N2   N   0.227201912642971   0.280267622988155   0.375000000000000   1.0000000
N2   N   0.724006083300215   0.780767447796643   0.375000000000000   1.0000000
N2   N   0.556179636905969   0.270006559333384   0.375000000000000   1.0000000
N2   N   0.891340105209662   0.278324908035659   0.375000000000000   1.0000000
N2   N   0.055523217560940   0.444426262074232   0.875000000000000   1.0000000
N2   N   0.222193642499369   0.944435128920435   0.875000000000000   1.0000000
N2   N   0.555531161657295   0.944432247495304   0.875000000000000   1.0000000
N2   N   0.388861481304480   0.444420999813428   0.875000000000000   1.0000000
N2   N   0.888862454125267   0.944431866550014   0.875000000000000   1.0000000
N2   N   0.056482979438753   0.944846393061792   0.375000000000000   1.0000000
N2   N   0.722187559212776   0.444425661351103   0.875000000000000   1.0000000
N2   N   0.388646545362116   0.942849337141741   0.375000000000000   1.0000000
N2   N   0.224260848330273   0.446251125936110   0.375000000000000   1.0000000
N2   N   0.221543647793284   0.611849584422472   0.375000000000000   1.0000000
N2   N   0.724609207666487   0.946456440589236   0.375000000000000   1.0000000
N2   N   0.888706560263047   0.443917378987886   0.375000000000000   1.0000000
N2   N   0.055521600561689   0.611092112339147   0.875000000000000   1.0000000
N2   N   0.222187822234733   0.111098080357735   0.875000000000000   1.0000000
N2   N   0.722187559212776   0.611095231195040   0.875000000000000   1.0000000
N2   N   0.555531073640132   0.111098116456398   0.875000000000000   1.0000000
N2   N   0.888861299816148   0.111097316574760   0.875000000000000   1.0000000
B2   B   0.112986664274415   0.056176238682104   0.375000000000000   1.0000000
B2   B   0.612022399760820   0.568356959331859   0.375000000000000   1.0000000
B2   B   0.445285436016444   0.052470551562870   0.375000000000000   1.0000000
B2   B   0.943112917777268   0.554941669466039   0.375000000000000   1.0000000
B2   B   0.780934749929643   0.057134041631483   0.375000000000000   1.0000000
B2   B   0.111089267157119   0.722211300245212   0.875000000000000   1.0000000
B2   B   0.444418834588003   0.722238963338342   0.875000000000000   1.0000000
B2   B   0.277674752097027   0.222160537835550   0.875000000000000   1.0000000
B2   B   0.777790175519134   0.722269259393421   0.875000000000000   1.0000000
B2   B   0.611108875005020   0.222166857914244   0.875000000000000   1.0000000
B2   B   0.944404940129656   0.222193301517328   0.875000000000000   1.0000000
B2   B   0.277311840996504   0.722754758635307   0.375000000000000   1.0000000
B2   B   0.115021105951096   0.224177219642211   0.375000000000000   1.0000000
B2   B   0.444367637563865   0.214691002816542   0.375000000000000   1.0000000
B2   B   0.613690321590415   0.729806893716973   0.375000000000000   1.0000000
B2   B   0.943112917777268   0.721504581644558   0.375000000000000   1.0000000
B2   B   0.780650958143478   0.222080562071838   0.375000000000000   1.0000000
B2   B   0.111076596920999   0.888875270013110   0.875000000000000   1.0000000
B2   B   0.444426217796170   0.888879775564758   0.875000000000000   1.0000000
B2   B   0.277674752097027   0.388847547594807   0.875000000000000   1.0000000
B2   B   0.611114570237298   0.388843786455399   0.875000000000000   1.0000000
B2   B   0.777774228769545   0.888920286251451   0.875000000000000   1.0000000
B2   B   0.944426474222009   0.388858383474718   0.875000000000000   1.0000000
B2   B   0.112986664274415   0.390143758925644   0.375000000000000   1.0000000
B2   B   0.277311840996506   0.887890415694511   0.375000000000000   1.0000000
B2   B   0.613485843109056   0.891970058127874   0.375000000000000   1.0000000
B2   B   0.945595130810292   0.889834483078907   0.375000000000000   1.0000000
B2   B   0.778322706244532   0.387308582670991   0.375000000000000   1.0000000
B2   B   0.277718756567285   0.555540860550789   0.875000000000000   1.0000000
B2   B   0.111045452585642   0.055524307122188   0.875000000000000   1.0000000
B2   B   0.611114570237298   0.555604117115216   0.875000000000000   1.0000000
B2   B   0.444418834588003   0.055513204582990   0.875000000000000   1.0000000
B2   B   0.944441776122512   0.555541224806793   0.875000000000000   1.0000000
B2   B   0.110519973864453   0.555850294159352   0.375000000000000   1.0000000
B2   B   0.777762881719470   0.055548107526411   0.875000000000000   1.0000000
B2   B   0.277527499410441   0.053466374379649   0.375000000000000   1.0000000
B2   B   0.444367637563868   0.563009968080679   0.375000000000000   1.0000000
B2   B   0.775133282406611   0.554233307869996   0.375000000000000   1.0000000
B2   B   0.613485843109055   0.054849118314493   0.375000000000000   1.0000000
B2   B   0.444396716889755   0.555572024906497   0.875000000000000   1.0000000
B2   B   0.947665509441381   0.057523075971966   0.375000000000000   1.0000000
B2   B   0.277746347359814   0.722212160435693   0.875000000000000   1.0000000
B2   B   0.111025506578899   0.222179419956116   0.875000000000000   1.0000000
B2   B   0.444396716889755   0.222158025316570   0.875000000000000   1.0000000
B2   B   0.611108875005020   0.722275350424122   0.875000000000000   1.0000000
B2   B   0.944441776122512   0.722233884649053   0.875000000000000   1.0000000
B2   B   0.777774228769545   0.222187275851438   0.875000000000000   1.0000000
B2   B   0.109969550924805   0.721651442129080   0.375000000000000   1.0000000
B2   B   0.445285436016445   0.726148217786917   0.375000000000000   1.0000000
B2   B   0.280883912023503   0.222641758231030   0.375000000000000   1.0000000
B2   B   0.778322706244532   0.724347456906860   0.375000000000000   1.0000000
B2   B   0.613690321590415   0.217216761206765   0.375000000000000   1.0000000
B2   B   0.947665509441381   0.223475766802749   0.375000000000000   1.0000000
B2   B   0.111045452585642   0.388854478796779   0.875000000000000   1.0000000
B2   B   0.277746347359814   0.888867520257451   0.875000000000000   1.0000000
B2   B   0.611103597225070   0.888906358281416   0.875000000000000   1.0000000
B2   B   0.444360146351893   0.388846739842613   0.875000000000000   1.0000000
B2   B   0.944426474222009   0.888901424080610   0.875000000000000   1.0000000
B2   B   0.110519973864453   0.888003013038411   0.375000000000000   1.0000000
B2   B   0.777790175519134   0.388854249459037   0.875000000000000   1.0000000
B2   B   0.445287976083238   0.889310654708299   0.375000000000000   1.0000000
B2   B   0.280883912023503   0.391575487125826   0.375000000000000   1.0000000
B2   B   0.277527499410441   0.557394458364114   0.375000000000000   1.0000000
B2   B   0.612022399760820   0.376998773762271   0.375000000000000   1.0000000
B2   B   0.780650958143478   0.891903729404947   0.375000000000000   1.0000000
B2   B   0.945595130810283   0.389093981064730   0.375000000000000   1.0000000
B2   B   0.111076596920999   0.555534660241211   0.875000000000000   1.0000000
B2   B   0.277718756567285   0.055511229349831   0.875000000000000   1.0000000
B2   B   0.777792147173448   0.555562740253390   0.875000000000000   1.0000000
B2   B   0.611103597225070   0.055530572276981   0.875000000000000   1.0000000
B2   B   0.944404940129656   0.055544971945645   0.875000000000000   1.0000000
B2   B   0.055566615690890   0.111099473470286   0.124921885461991   1.0000000
B2   B   0.555555903100967   0.611348020257364   0.124740164661389   1.0000000
B2   B   0.388785565401186   0.110863128406789   0.124765455542928   1.0000000
B2   B   0.889086178224934   0.611209755779099   0.124932136314244   1.0000000
B2   B   0.722247306660290   0.111080304200618   0.124894766119043   1.0000000
B2   B   0.055626454834622   0.777802692795289   0.625054368495168   1.0000000
B2   B   0.388831541835757   0.777818477823327   0.625073501763561   1.0000000
B2   B   0.222159299823715   0.277746316578528   0.625126317833429   1.0000000
B2   B   0.722305954147660   0.777925103119383   0.625174550086593   1.0000000
B2   B   0.555555903100967   0.277541216176941   0.625259835338601   1.0000000
B2   B   0.888952137865557   0.277783889903586   0.625060711932822   1.0000000
B2   B   0.222205578050008   0.777769455691667   0.124952575089460   1.0000000
B2   B   0.055566615690890   0.277800475553939   0.124921885461991   1.0000000
B2   B   0.388692115726444   0.277405459248861   0.125794885512677   1.0000000
B2   B   0.555533677616913   0.777901980595937   0.124815071341467   1.0000000
B2   B   0.889031429358036   0.777884805008080   0.124921121306101   1.0000000
B2   B   0.722305954147660   0.277714184361626   0.124825449913417   1.0000000
B2   B   0.055586846581795   0.944436533935081   0.625064673787927   1.0000000
B2   B   0.388831541835757   0.944346397345787   0.625073501763561   1.0000000
B2   B   0.222152896640730   0.444513550495622   0.625208705093379   1.0000000
B2   B   0.555867614307787   0.444600473820558   0.624776143272376   1.0000000
B2   B   0.722247306660290   0.944500335793026   0.625105233880958   1.0000000
B2   B   0.889031429358036   0.444479957683323   0.625078878693867   1.0000000
B2   B   0.055586846581795   0.444483645980045   0.124935326212065   1.0000000
B2   B   0.222182735218361   0.944347305760650   0.124934288946222   1.0000000
B2   B   0.555532632023257   0.944432982678304   0.124913949617992   1.0000000
B2   B   0.388692115726443   0.444619989810910   0.125794885512677   1.0000000
B2   B   0.888952137865557   0.944501581295298   0.124939288067169   1.0000000
B2   B   0.722493827249536   0.444506239187355   0.124836945929709   1.0000000
B2   B   0.222182735218361   0.611168762791014   0.625065711053786   1.0000000
B2   B   0.055566615690890   0.111099473470286   0.625078114538005   1.0000000
B2   B   0.555555903100967   0.611348020257364   0.625259835338601   1.0000000
B2   B   0.388785565401186   0.110863128406788   0.625234544457073   1.0000000
B2   B   0.889086178224934   0.611209755779099   0.625067863685769   1.0000000
B2   B   0.055626454834622   0.611157095372706   0.124945631504821   1.0000000
B2   B   0.722247306660290   0.111080304200618   0.625105233880958   1.0000000
B2   B   0.222152896640730   0.110972679478447   0.124791294906621   1.0000000
B2   B   0.388785565401186   0.611255770327701   0.124765455542928   1.0000000
B2   B   0.722493827249537   0.611320921395548   0.124836945929709   1.0000000
B2   B   0.555533677616913   0.110965030354299   0.124815071341467   1.0000000
B2   B   0.388785565401186   0.611255770327701   0.625234544457073   1.0000000
B2   B   0.888925982543235   0.111129657938296   0.124942911554332   1.0000000
B2   B   0.222205578050008   0.777769455691667   0.625047424910540   1.0000000
B2   B   0.055566615690890   0.277800475553939   0.625078114538005   1.0000000
B2   B   0.388692115726445   0.277405459248861   0.624205114487337   1.0000000
B2   B   0.555533677616913   0.777901980595937   0.625184928658518   1.0000000
B2   B   0.889031429358036   0.777884805008080   0.625078878693866   1.0000000
B2   B   0.722305954147660   0.277714184361626   0.625174550086593   1.0000000
B2   B   0.055626454834622   0.777802692795289   0.124945631504821   1.0000000
B2   B   0.388831541835757   0.777818477823327   0.124926498236428   1.0000000
B2   B   0.222159299823716   0.277746316578528   0.124873682166588   1.0000000
B2   B   0.722305954147660   0.777925103119383   0.124825449913417   1.0000000
B2   B   0.555555903100967   0.277541216176941   0.124740164661389   1.0000000
B2   B   0.888952137865557   0.277783889903587   0.124939288067169   1.0000000
B2   B   0.055586846581795   0.444483645980045   0.625064673787927   1.0000000
B2   B   0.222182735218362   0.944347305760650   0.625065711053786   1.0000000
B2   B   0.555532632023257   0.944432982678304   0.625086050382016   1.0000000
B2   B   0.388692115726445   0.444619989810910   0.624205114487337   1.0000000
B2   B   0.888952137865557   0.944501581295298   0.625060711932822   1.0000000
B2   B   0.055586846581795   0.944436533935081   0.124935326212065   1.0000000
B2   B   0.722493827249536   0.444506239187355   0.625163054070301   1.0000000
B2   B   0.388831541835757   0.944346397345787   0.124926498236428   1.0000000
B2   B   0.222152896640733   0.444513550495622   0.124791294906621   1.0000000
B2   B   0.222182735218361   0.611168762791014   0.124934288946222   1.0000000
B2   B   0.555867614307786   0.444600473820558   0.125223856727628   1.0000000
B2   B   0.722247306660290   0.944500335793026   0.124894766119043   1.0000000
B2   B   0.889031429358036   0.444479957683324   0.124921121306100   1.0000000
B2   B   0.055626454834622   0.611157095372706   0.625054368495168   1.0000000
B2   B   0.222152896640730   0.110972679478447   0.625208705093379   1.0000000
B2   B   0.722493827249536   0.611320921395551   0.625163054070301   1.0000000
B2   B   0.555533677616913   0.110965030354299   0.625184928658518   1.0000000
B2   B   0.888925982543235   0.111129657938296   0.625057088445672   1.0000000


