data_1
_audit_creation_method   'vasp2cif'
_cell_length_a    17.52789999999977
_cell_length_b    17.52789999999977
_cell_length_c    15.0
_cell_angle_alpha    90.0
_cell_angle_beta    90.0
_cell_angle_gamma    119.99999999999916

_symmetry_space_group_name_H-M    'P 1'
loop_
_atom_site_label
_atom_site_type_symbol
_atom_site_fract_x
_atom_site_fract_y
_atom_site_fract_z
_atom_site_occupancy
B2   B   0.907622511172943   0.952896591756434   0.110723252629726   1.0000000
B2   B   0.908638416414473   0.095615154907497   0.110805030241598   1.0000000
B2   B   0.909125864937408   0.237940885088816   0.110750086908426   1.0000000
B2   B   0.909228362036090   0.380398520587172   0.110674883239420   1.0000000
B2   B   0.907926388116667   0.522956844322679   0.110748466096098   1.0000000
B2   B   0.905886244857987   0.665174193523449   0.110787549140285   1.0000000
B2   B   0.903033507837002   0.806661601024255   0.110706496680307   1.0000000
B2   B   0.049816896658008   0.953765849037721   0.110698275602166   1.0000000
B2   B   0.052380873716277   0.097571139009908   0.110784994507535   1.0000000
B2   B   0.052476792530203   0.239441581369222   0.110850646763384   1.0000000
B2   B   0.051573607358918   0.381640458141915   0.110781463179453   1.0000000
B2   B   0.049864164953927   0.524579951933027   0.110717697636361   1.0000000
B2   B   0.048751189412830   0.667576730143239   0.110761536949547   1.0000000
B2   B   0.048285507186378   0.810443271743109   0.110728325237356   1.0000000
B2   B   0.192891984718172   0.955276969535848   0.110665195243738   1.0000000
B2   B   0.196553953579524   0.100472574034758   0.110706599031537   1.0000000
B2   B   0.197526143621387   0.242608758797611   0.110781352509635   1.0000000
B2   B   0.195107181057749   0.383190863439570   0.110780044917724   1.0000000
B2   B   0.191365914294651   0.525581565728016   0.110723753145022   1.0000000
B2   B   0.190396572713519   0.668753662160526   0.110733868544877   1.0000000
B2   B   0.191390800734691   0.811814568740643   0.110726950168721   1.0000000
B2   B   0.335297702993229   0.955127084754838   0.110718265979174   1.0000000
B2   B   0.337637991937203   0.099355677622846   0.110719683446746   1.0000000
B2   B   0.345206109317791   0.248732474928063   0.110742419764361   1.0000000
B2   B   0.342508598246210   0.387178275313917   0.110846729320415   1.0000000
B2   B   0.332496161029517   0.527765490890844   0.110850165836454   1.0000000
B2   B   0.330983052334679   0.669921768466394   0.110728152490856   1.0000000
B2   B   0.333931778913962   0.812347888928113   0.110785514311462   1.0000000
B2   B   0.477865293511452   0.953681501267444   0.110742405837611   1.0000000
B2   B   0.479347219859101   0.095913039860481   0.110756009910360   1.0000000
B2   B   0.482006959155548   0.239220391106983   0.110825703055586   1.0000000
B2   B   0.502334244882134   0.397023496737496   0.110732471627105   1.0000000
B2   B   0.469539734315348   0.668876150574413   0.110791495221677   1.0000000
B2   B   0.476473979462982   0.811603468776016   0.110797818601832   1.0000000
B2   B   0.620940030908545   0.953383736240839   0.110760354222564   1.0000000
B2   B   0.622125554880318   0.094440827163811   0.110724181278087   1.0000000
B2   B   0.623441038468100   0.235094327678744   0.110740810674488   1.0000000
B2   B   0.625969932599024   0.374465294410445   0.110860190896808   1.0000000
B2   B   0.607463829185730   0.496235444138521   0.110626770200496   1.0000000
B2   B   0.619100559206579   0.812182148285649   0.110715441724861   1.0000000
B2   B   0.764326164206995   0.952437637601847   0.110740428318547   1.0000000
B2   B   0.765386463841379   0.094788660128673   0.110726541808671   1.0000000
B2   B   0.766302643187536   0.236679027107133   0.110679346346195   1.0000000
B2   B   0.767361315707364   0.378458284664702   0.110721981754804   1.0000000
B2   B   0.764723282472734   0.519131555245059   0.110777207255705   1.0000000
B2   B   0.758629394434722   0.656222570057992   0.110701782367767   1.0000000
B2   B   0.763578215958902   0.809590770829023   0.110634992908626   1.0000000
P2   P   0.615401335017483   0.657398281672544   0.110536638236654   1.0000000
N2   N   0.953459001433021   0.903806841429333   0.110684764182581   1.0000000
N2   N   0.956533958423846   0.048569952503982   0.110774851328005   1.0000000
N2   N   0.956915445074389   0.190856786497360   0.110820962836144   1.0000000
N2   N   0.956685267783543   0.333061430343105   0.110721397552607   1.0000000
N2   N   0.955525361627285   0.475674178374722   0.110683119018622   1.0000000
N2   N   0.954277894342256   0.618541506212951   0.110773000713701   1.0000000
N2   N   0.952736081728049   0.761126896278698   0.110738209956909   1.0000000
N2   N   0.097162982289357   0.906263663140259   0.110669051393869   1.0000000
N2   N   0.099787564582615   0.050200585693313   0.110706295428871   1.0000000
N2   N   0.101064290118764   0.193076101120035   0.110793815003840   1.0000000
N2   N   0.099570700329165   0.334507614405645   0.110804250402533   1.0000000
N2   N   0.096951747119959   0.476847708249640   0.110717421203367   1.0000000
N2   N   0.095901001148912   0.620019003197704   0.110725307658456   1.0000000
N2   N   0.096130860534519   0.763225675684095   0.110721912847885   1.0000000
N2   N   0.239799178905244   0.907214927676976   0.110675251322667   1.0000000
N2   N   0.241939190258920   0.050904393687849   0.110656873867272   1.0000000
N2   N   0.246780690189143   0.196962385744845   0.110728020565272   1.0000000
N2   N   0.245318369330696   0.337846459253671   0.110774084109021   1.0000000
N2   N   0.238391777977221   0.477947852992454   0.110735661676650   1.0000000
N2   N   0.236615040221425   0.620953319562601   0.110682825367635   1.0000000
N2   N   0.238556160897773   0.764236056072631   0.110742073214399   1.0000000
N2   N   0.382467320121711   0.907319685168773   0.110744624519554   1.0000000
N2   N   0.383914355088752   0.050039725980290   0.110723046193183   1.0000000
N2   N   0.386726336795568   0.194417610291501   0.110753740641067   1.0000000
N2   N   0.397291717333683   0.346229870526897   0.110706251094864   1.0000000
N2   N   0.381540169319365   0.482457855279928   0.110979564411819   1.0000000
N2   N   0.375934436761250   0.622354556484628   0.110753136936256   1.0000000
N2   N   0.380926075475198   0.765125748769410   0.110754449093770   1.0000000
N2   N   0.525468821840543   0.906520441970418   0.110758504149154   1.0000000
N2   N   0.526729621451564   0.048178938809700   0.110717492298511   1.0000000
N2   N   0.528357600879941   0.189937769562058   0.110771756667884   1.0000000
N2   N   0.532028194330826   0.332161782554335   0.110830967028120   1.0000000
N2   N   0.470670435523530   0.525686645385619   0.110545131030135   1.0000000
N2   N   0.506152655745941   0.614609184287338   0.110667520530923   1.0000000
N2   N   0.523518803616655   0.764279158129718   0.110782289529895   1.0000000
N2   N   0.668750754664501   0.906731480740878   0.110756868367569   1.0000000
N2   N   0.670006289144462   0.047790335257054   0.110715615715627   1.0000000
N2   N   0.671183754537180   0.188515885198834   0.110681446727308   1.0000000
N2   N   0.673249762096160   0.328585494530494   0.110771775989391   1.0000000
N2   N   0.671630694139014   0.467392299846308   0.110781784406146   1.0000000
N2   N   0.663332817550788   0.596456660872177   0.110548130814805   1.0000000
N2   N   0.669484364426626   0.768699204634170   0.110537615799708   1.0000000
N2   N   0.812413923064954   0.905153531417898   0.110678738269197   1.0000000
N2   N   0.813145263745168   0.047646064676793   0.110741129463595   1.0000000
N2   N   0.813961581072824   0.189678386256580   0.110695406048028   1.0000000
N2   N   0.814771822649061   0.331506531209651   0.110638891232668   1.0000000
N2   N   0.813894951564793   0.473416189993561   0.110739497786081   1.0000000
N2   N   0.811624564669061   0.614964464692333   0.110758848517764   1.0000000
N2   N   0.806149866042524   0.756086148982512   0.110664785523816   1.0000000


