data_1
_audit_creation_method   'vasp2cif'
_cell_length_a    14.93631414619966
_cell_length_b    14.936314146199727
_cell_length_c    13.341276283792837
_cell_angle_alpha    90.0
_cell_angle_beta    90.0
_cell_angle_gamma    119.99999999999984

_symmetry_space_group_name_H-M    'P 1'
loop_
_atom_site_label
_atom_site_type_symbol
_atom_site_fract_x
_atom_site_fract_y
_atom_site_fract_z
_atom_site_occupancy
Al2   Al   0.494441784810866   0.413887559072201   0.375000000000000   1.0000000
N2   N   0.111196953204781   0.055611991053013   0.124609911697618   1.0000000
N2   N   0.611502151792159   0.555999724679134   0.123977659009751   1.0000000
N2   N   0.444616003227589   0.055629664908840   0.124416537073430   1.0000000
N2   N   0.944577348231490   0.555604019172074   0.124740786440352   1.0000000
N2   N   0.777960311403305   0.055646822368419   0.125265144710573   1.0000000
N2   N   0.111245430162646   0.722289381747857   0.624743518949434   1.0000000
N2   N   0.444616003227589   0.722319671652034   0.625583462926641   1.0000000
N2   N   0.277780319743286   0.222220492485513   0.625468748074566   1.0000000
N2   N   0.778000918414826   0.722454748088127   0.626149991543718   1.0000000
N2   N   0.611328543440917   0.222216284354641   0.626150686891240   1.0000000
N2   N   0.944570347878368   0.222260778182688   0.624928911443681   1.0000000
N2   N   0.277932036555112   0.722294614027446   0.124960495042673   1.0000000
N2   N   0.111151320090648   0.222242326711993   0.124452496992685   1.0000000
N2   N   0.444625570600785   0.222297339471066   0.124746819851816   1.0000000
N2   N   0.611328543440917   0.722445592419597   0.123849313108789   1.0000000
N2   N   0.944577348231490   0.722306662392705   0.124740786440352   1.0000000
N2   N   0.777973372147349   0.222238677180233   0.124738419352788   1.0000000
N2   N   0.111242613784814   0.888970929229301   0.624998371586252   1.0000000
N2   N   0.444623597447916   0.888978465390461   0.625078153516404   1.0000000
N2   N   0.277780319743286   0.388893160591120   0.625468748074566   1.0000000
N2   N   0.611502151792159   0.388835760446216   0.626022340990165   1.0000000
N2   N   0.777973372147349   0.889068028300652   0.625261580647232   1.0000000
N2   N   0.944598826639898   0.388918861179958   0.625078387078195   1.0000000
N2   N   0.111196953204781   0.388918295485121   0.124609911697618   1.0000000
N2   N   0.277932036555112   0.888970755860888   0.124960495042673   1.0000000
N2   N   0.611306203933062   0.889022907146873   0.124837675568590   1.0000000
N2   N   0.444289156722993   0.388811245028098   0.127281037341479   1.0000000
N2   N   0.944598826639898   0.889013298793426   0.124921612922075   1.0000000
N2   N   0.778000918414826   0.388879503660277   0.123850008456250   1.0000000
N2   N   0.277914421493151   0.555613002218202   0.625541257046208   1.0000000
N2   N   0.111196953204781   0.055611991053023   0.625390088302343   1.0000000
N2   N   0.611502151792159   0.555999724679134   0.626022340990165   1.0000000
N2   N   0.444616003227589   0.055629664908829   0.625583462926641   1.0000000
N2   N   0.944577348231490   0.555604019172074   0.625259213559627   1.0000000
N2   N   0.111242613784814   0.555605017888987   0.125001628413815   1.0000000
N2   N   0.777960311403305   0.055646822368419   0.624734855289391   1.0000000
N2   N   0.277914421493151   0.055634752608129   0.124458742953876   1.0000000
N2   N   0.444625570600785   0.555661564463048   0.124746819851815   1.0000000
N2   N   0.777939397403581   0.555636365368739   0.123996663506886   1.0000000
N2   N   0.611306203933062   0.055616630119441   0.124837675568595   1.0000000
N2   N   0.444625570600785   0.555661564463048   0.625253180148190   1.0000000
N2   N   0.944570347878368   0.055642903028993   0.125071088556306   1.0000000
N2   N   0.277932036555112   0.722294614027446   0.625039504957521   1.0000000
N2   N   0.111151320090648   0.222242326711993   0.625547503007344   1.0000000
N2   N   0.444625570600785   0.222297339471066   0.625253180148190   1.0000000
N2   N   0.611328543440917   0.722445592419597   0.626150686891240   1.0000000
N2   N   0.944577348231490   0.722306662392705   0.625259213559627   1.0000000
N2   N   0.777973372147349   0.222238677180233   0.625261580647232   1.0000000
N2   N   0.111245430162646   0.722289381747857   0.125256481050683   1.0000000
N2   N   0.444616003227589   0.722319671652034   0.124416537073430   1.0000000
N2   N   0.277780319743286   0.222220492485513   0.124531251925359   1.0000000
N2   N   0.778000918414826   0.722454748088127   0.123850008456250   1.0000000
N2   N   0.611328543440917   0.222216284354641   0.123849313108789   1.0000000
N2   N   0.944570347878368   0.222260778182688   0.125071088556306   1.0000000
N2   N   0.111196953204781   0.388918295485121   0.625390088302343   1.0000000
N2   N   0.277932036555112   0.888970755860888   0.625039504957521   1.0000000
N2   N   0.611306203933062   0.889022907146873   0.625162324431220   1.0000000
N2   N   0.444289156722993   0.388811245028098   0.622718962658396   1.0000000
N2   N   0.944598826639898   0.889013298793426   0.625078387078195   1.0000000
N2   N   0.111242613784814   0.888970929229301   0.125001628413815   1.0000000
N2   N   0.778000918414826   0.388879503660277   0.626149991543718   1.0000000
N2   N   0.444623597447916   0.888978465390461   0.124921846483571   1.0000000
N2   N   0.277780319743286   0.388893160591120   0.124531251925358   1.0000000
N2   N   0.277914421493151   0.555613002218202   0.124458742953876   1.0000000
N2   N   0.611502151792159   0.388835760446216   0.123977659009757   1.0000000
N2   N   0.777973372147349   0.889068028300652   0.124738419352788   1.0000000
N2   N   0.944598826639898   0.388918861179958   0.124921612922075   1.0000000
N2   N   0.111242613784814   0.555605017888987   0.624998371586252   1.0000000
N2   N   0.277914421493151   0.055634752608129   0.625541257046208   1.0000000
N2   N   0.777939397403581   0.555636365368739   0.626003336493032   1.0000000
N2   N   0.611306203933062   0.055616630119441   0.625162324431220   1.0000000
N2   N   0.944570347878368   0.055642903028993   0.624928911443681   1.0000000
N2   N   0.058920243671695   0.112936686514025   0.375000000000000   1.0000000
N2   N   0.556354624758639   0.623156226557116   0.375000000000000   1.0000000
N2   N   0.388009125124834   0.105253778403470   0.375000000000000   1.0000000
N2   N   0.885079574384342   0.609206453858905   0.375000000000000   1.0000000
N2   N   0.724556810556510   0.111133871092428   0.375000000000000   1.0000000
N2   N   0.055652442171040   0.777824331438161   0.875000000000000   1.0000000
N2   N   0.388943514998431   0.777818131462127   0.875000000000000   1.0000000
N2   N   0.222315785341873   0.277824559337561   0.875000000000000   1.0000000
N2   N   0.722284438690690   0.777795382593161   0.875000000000000   1.0000000
N2   N   0.555600947735671   0.277790978135778   0.875000000000000   1.0000000
N2   N   0.888956891305663   0.277820399203717   0.875000000000000   1.0000000
N2   N   0.220323527683885   0.776828430508574   0.375000000000000   1.0000000
N2   N   0.058920243671695   0.279316890490979   0.375000000000000   1.0000000
N2   N   0.391856143279883   0.272266746359345   0.375000000000000   1.0000000
N2   N   0.556080463754993   0.783254928057055   0.375000000000000   1.0000000
N2   N   0.888537023025528   0.778219021021967   0.375000000000000   1.0000000
N2   N   0.724224186090242   0.275750619763276   0.375000000000000   1.0000000
N2   N   0.055628561568818   0.944475533426322   0.875000000000000   1.0000000
N2   N   0.388943514998431   0.944458716869442   0.875000000000000   1.0000000
N2   N   0.222297443798878   0.444491073835044   0.875000000000000   1.0000000
N2   N   0.555616241108936   0.444474787221132   0.875000000000000   1.0000000
N2   N   0.722280104986225   0.944468914939950   0.875000000000000   1.0000000
N2   N   0.888978885700354   0.444499266804962   0.875000000000000   1.0000000
N2   N   0.056069245836457   0.445015858176066   0.375000000000000   1.0000000
N2   N   0.220811501582407   0.942204450965483   0.375000000000000   1.0000000
N2   N   0.556104229978060   0.944718781655907   0.375000000000000   1.0000000
N2   N   0.391856143279841   0.452922730253889   0.375000000000000   1.0000000
N2   N   0.891489877301478   0.946601145909007   0.375000000000000   1.0000000
N2   N   0.719497517727131   0.440454910411934   0.375000000000000   1.0000000
N2   N   0.222283993092802   0.611154912130600   0.875000000000000   1.0000000
N2   N   0.055631677220058   0.111146670876847   0.875000000000000   1.0000000
N2   N   0.555600947735671   0.611143302933210   0.875000000000000   1.0000000
N2   N   0.388941396508902   0.111112467599622   0.875000000000000   1.0000000
N2   N   0.889016202757032   0.611174768045253   0.875000000000000   1.0000000
N2   N   0.053416004398461   0.610444096062116   0.375000000000000   1.0000000
N2   N   0.722280104986225   0.111144523379657   0.875000000000000   1.0000000
N2   N   0.223453353160636   0.110218489445009   0.375000000000000   1.0000000
N2   N   0.388009125124834   0.616088680054671   0.375000000000000   1.0000000
N2   N   0.719497517727131   0.612375940648460   0.375000000000000   1.0000000
N2   N   0.556080463754993   0.106158869031298   0.375000000000000   1.0000000
N2   N   0.388941396508902   0.611162262242602   0.875000000000000   1.0000000
N2   N   0.892101771451075   0.112717552392107   0.375000000000000   1.0000000
N2   N   0.222293535265915   0.777813434299732   0.875000000000000   1.0000000
N2   N   0.055631677220058   0.277818339676525   0.875000000000000   1.0000000
N2   N   0.388974383844085   0.277803866949791   0.875000000000000   1.0000000
N2   N   0.555606226284343   0.777808672479343   0.875000000000000   1.0000000
N2   N   0.888978885700354   0.777812952228672   0.875000000000000   1.0000000
N2   N   0.722284438690690   0.277822389430836   0.875000000000000   1.0000000
N2   N   0.053416004398455   0.776305241669457   0.375000000000000   1.0000000
N2   N   0.387819998186410   0.779051058754566   0.375000000000000   1.0000000
N2   N   0.227135251213643   0.280234292273460   0.375000000000000   1.0000000
N2   N   0.724224186090242   0.781806899660168   0.375000000000000   1.0000000
N2   N   0.556354624758493   0.266531731534868   0.375000000000000   1.0000000
N2   N   0.891489877301478   0.278222064726010   0.375000000000000   1.0000000
N2   N   0.055628561568818   0.444486361475857   0.875000000000000   1.0000000
N2   N   0.222283993092802   0.944462414295475   0.875000000000000   1.0000000
N2   N   0.555609362538780   0.944471347936089   0.875000000000000   1.0000000
N2   N   0.388974383844085   0.444503850227584   0.875000000000000   1.0000000
N2   N   0.888956891305663   0.944469825435075   0.875000000000000   1.0000000
N2   N   0.056069245836467   0.944386720993758   0.375000000000000   1.0000000
N2   N   0.722323654296454   0.444510350398846   0.875000000000000   1.0000000
N2   N   0.387819998186410   0.942102272765324   0.375000000000000   1.0000000
N2   N   0.223453353160688   0.446568197049003   0.375000000000000   1.0000000
N2   N   0.220811501582407   0.611940383950259   0.375000000000000   1.0000000
N2   N   0.724556810556510   0.946756272797531   0.375000000000000   1.0000000
N2   N   0.888537023025528   0.443651335336900   0.375000000000000   1.0000000
N2   N   0.055652442171041   0.611161444066216   0.875000000000000   1.0000000
N2   N   0.222297443798878   0.111139703297233   0.875000000000000   1.0000000
N2   N   0.722323654296454   0.611146637230960   0.875000000000000   1.0000000
N2   N   0.555606226284343   0.111130887138535   0.875000000000000   1.0000000
N2   N   0.888955715017475   0.111144524175441   0.875000000000000   1.0000000
B2   B   0.113354185372086   0.056102964789970   0.375000000000000   1.0000000
B2   B   0.605679673041214   0.562116279778851   0.375000000000000   1.0000000
B2   B   0.444677645738269   0.052402287260459   0.375000000000000   1.0000000
B2   B   0.941677975885866   0.554590260152632   0.375000000000000   1.0000000
B2   B   0.780882003711813   0.057107668522612   0.375000000000000   1.0000000
B2   B   0.111172305449328   0.722252819391391   0.875000000000000   1.0000000
B2   B   0.444496406151379   0.722191829275532   0.875000000000000   1.0000000
B2   B   0.277990245635434   0.222349461833678   0.875000000000000   1.0000000
B2   B   0.777769482376814   0.722120851648053   0.875000000000000   1.0000000
B2   B   0.611121497008341   0.222341075072733   0.875000000000000   1.0000000
B2   B   0.944535328688958   0.222288258011699   0.875000000000000   1.0000000
B2   B   0.276690135642104   0.722499659136052   0.375000000000000   1.0000000
B2   B   0.116720579833139   0.225026956583225   0.375000000000000   1.0000000
B2   B   0.444634305461160   0.216376182541972   0.375000000000000   1.0000000
B2   B   0.612769832774486   0.729800812247995   0.375000000000000   1.0000000
B2   B   0.941677975885866   0.720421049066796   0.375000000000000   1.0000000
B2   B   0.780337366290085   0.222221020075142   0.375000000000000   1.0000000
B2   B   0.111194160392657   0.888924425083915   0.875000000000000   1.0000000
B2   B   0.444489467045826   0.888911400189670   0.875000000000000   1.0000000
B2   B   0.277990245635434   0.388974117135180   0.875000000000000   1.0000000
B2   B   0.611129792845463   0.388973775744604   0.875000000000000   1.0000000
B2   B   0.777799188370734   0.888825656478652   0.875000000000000   1.0000000
B2   B   0.944498161078066   0.388961195034020   0.875000000000000   1.0000000
B2   B   0.113354185372086   0.390584553915399   0.375000000000000   1.0000000
B2   B   0.276690135642104   0.887523809839296   0.375000000000000   1.0000000
B2   B   0.612995431375487   0.891961580005045   0.375000000000000   1.0000000
B2   B   0.945110249490312   0.889187482033140   0.375000000000000   1.0000000
B2   B   0.776643336211734   0.387525368643441   0.375000000000000   1.0000000
B2   B   0.277906114745811   0.555592476431490   0.875000000000000   1.0000000
B2   B   0.111247344354074   0.055622759047852   0.875000000000000   1.0000000
B2   B   0.611129792845463   0.555489350434145   0.875000000000000   1.0000000
B2   B   0.444496406151379   0.055637910209174   0.875000000000000   1.0000000
B2   B   0.944481948008142   0.555608588059057   0.875000000000000   1.0000000
B2   B   0.109985628580135   0.555840284141661   0.375000000000000   1.0000000
B2   B   0.777817988067651   0.055575660700503   0.875000000000000   1.0000000
B2   B   0.277651609425330   0.053520277978774   0.375000000000000   1.0000000
B2   B   0.444634305461214   0.561591456252619   0.375000000000000   1.0000000
B2   B   0.771313631569575   0.552323482451286   0.375000000000000   1.0000000
B2   B   0.612995431375487   0.054367184703832   0.375000000000000   1.0000000
B2   B   0.444559861313230   0.555544804670408   0.875000000000000   1.0000000
B2   B   0.948087476696121   0.057641267692327   0.375000000000000   1.0000000
B2   B   0.277852207622050   0.722243265609854   0.875000000000000   1.0000000
B2   B   0.111290109247726   0.222311721290532   0.875000000000000   1.0000000
B2   B   0.444559861313230   0.222348389976083   0.875000000000000   1.0000000
B2   B   0.611121497008341   0.722113755268938   0.875000000000000   1.0000000
B2   B   0.944481948008142   0.722206693282381   0.875000000000000   1.0000000
B2   B   0.777799188370734   0.222306865225618   0.875000000000000   1.0000000
B2   B   0.109102642989019   0.721217988161110   0.375000000000000   1.0000000
B2   B   0.444677645738240   0.725608691811143   0.375000000000000   1.0000000
B2   B   0.283871370030514   0.223617243995105   0.375000000000000   1.0000000
B2   B   0.776643336211734   0.722451300901612   0.375000000000000   1.0000000
B2   B   0.612769832774486   0.216302353859691   0.375000000000000   1.0000000
B2   B   0.948087476696121   0.223779542337143   0.375000000000000   1.0000000
B2   B   0.111247344354074   0.388957918639537   0.875000000000000   1.0000000
B2   B   0.277852207622050   0.888942275345465   0.875000000000000   1.0000000
B2   B   0.611136054901750   0.888860556881641   0.875000000000000   1.0000000
B2   B   0.444622408995897   0.388977871164551   0.875000000000000   1.0000000
B2   B   0.944498161078066   0.888870299377293   0.875000000000000   1.0000000
B2   B   0.109985628580140   0.887478677771847   0.375000000000000   1.0000000
B2   B   0.777769482376814   0.388981964062254   0.875000000000000   1.0000000
B2   B   0.444604941959021   0.888969137646231   0.375000000000000   1.0000000
B2   B   0.283871370030514   0.393587459368681   0.375000000000000   1.0000000
B2   B   0.277651609425330   0.557464664779892   0.375000000000000   1.0000000
B2   B   0.605679673041214   0.376896726595560   0.375000000000000   1.0000000
B2   B   0.780337366290085   0.891449679548247   0.375000000000000   1.0000000
B2   B   0.945110249490312   0.389256100790583   0.375000000000000   1.0000000
B2   B   0.111194160392657   0.555603068641992   0.875000000000000   1.0000000
B2   B   0.277906114745811   0.055646971647711   0.875000000000000   1.0000000
B2   B   0.777775204269882   0.555554268801665   0.875000000000000   1.0000000
B2   B   0.611136054901750   0.055608831353594   0.875000000000000   1.0000000
B2   B   0.944535328688958   0.055580404010628   0.875000000000000   1.0000000
B2   B   0.055745633380139   0.111247461363509   0.125108253425612   1.0000000
B2   B   0.555871772539927   0.610986765670248   0.125247423796063   1.0000000
B2   B   0.389220499540299   0.111567202653407   0.125042006117350   1.0000000
B2   B   0.888652122180222   0.610992727756773   0.124947119900951   1.0000000
B2   B   0.722389475026373   0.111215964838536   0.125335785992444   1.0000000
B2   B   0.055567553628973   0.777813061992963   0.624605447031598   1.0000000
B2   B   0.389133266540856   0.777795787779412   0.624890818411016   1.0000000
B2   B   0.222497489262315   0.277915411297851   0.624757863705274   1.0000000
B2   B   0.722297787330245   0.777753627052165   0.625349367054270   1.0000000
B2   B   0.555871772539927   0.278218340203044   0.624752576203833   1.0000000
B2   B   0.889005407352957   0.277820927303582   0.624704197177010   1.0000000
B2   B   0.222379807949983   0.777856570641555   0.125418423772734   1.0000000
B2   B   0.055745633380139   0.277831505350085   0.125108253425612   1.0000000
B2   B   0.389161330975098   0.278117750418203   0.126850359879823   1.0000000
B2   B   0.555787891604803   0.777746981513940   0.124823056084233   1.0000000
B2   B   0.888843339978165   0.777770485624345   0.124928661270301   1.0000000
B2   B   0.722297787330245   0.277877493611505   0.124650632945726   1.0000000
B2   B   0.055688691240075   0.944586568065945   0.624768314161858   1.0000000
B2   B   0.389133266540856   0.944670812094922   0.624890818411016   1.0000000
B2   B   0.222485929373136   0.444406457833273   0.624977599450978   1.0000000
B2   B   0.555892269386001   0.444612801359665   0.618329617915143   1.0000000
B2   B   0.722389475026373   0.944506843521212   0.624664214007492   1.0000000
B2   B   0.888843339978165   0.444406187687180   0.625071338729663   1.0000000
B2   B   0.055688691240059   0.444435456507281   0.125231685838196   1.0000000
B2   B   0.222441152081224   0.944695682357271   0.125147332282709   1.0000000
B2   B   0.555776110560136   0.944554721946535   0.125253165678418   1.0000000
B2   B   0.389161330975098   0.444376913890268   0.126850359879823   1.0000000
B2   B   0.889005407352957   0.944517813382612   0.125295802822974   1.0000000
B2   B   0.721979104307052   0.444301135953292   0.124591972123823   1.0000000
B2   B   0.222441152081224   0.611078803057175   0.624852667717297   1.0000000
B2   B   0.055745633380148   0.111247461363509   0.624891746574370   1.0000000
B2   B   0.555871772539927   0.610986765670248   0.624752576203833   1.0000000
B2   B   0.389220499540299   0.111567202653407   0.624957993882511   1.0000000
B2   B   0.888652122180222   0.610992727756773   0.625052880099031   1.0000000
B2   B   0.055567553628973   0.611087824969401   0.125394552968369   1.0000000
B2   B   0.722389475026373   0.111215964838536   0.624664214007492   1.0000000
B2   B   0.222485929373136   0.111412804873225   0.125022400549057   1.0000000
B2   B   0.389220499540299   0.610986630220284   0.125042006117350   1.0000000
B2   B   0.721979104307052   0.611011301687242   0.124591972123823   1.0000000
B2   B   0.555787891604803   0.111374243424368   0.124823056084233   1.0000000
B2   B   0.389220499540299   0.610986630220284   0.624957993882511   1.0000000
B2   B   0.889045004722139   0.111189169027728   0.125505822724438   1.0000000
B2   B   0.222379807949983   0.777856570641555   0.624581576227199   1.0000000
B2   B   0.055745633380139   0.277831505350085   0.624891746574370   1.0000000
B2   B   0.389161330975098   0.278117750418203   0.623149640120128   1.0000000
B2   B   0.555787891604803   0.777746981513940   0.625176943915612   1.0000000
B2   B   0.888843339978165   0.777770485624345   0.625071338729663   1.0000000
B2   B   0.722297787330245   0.277877493611505   0.625349367054270   1.0000000
B2   B   0.055567553628973   0.777813061992963   0.125394552968369   1.0000000
B2   B   0.389133266540856   0.777795787779412   0.125109181588946   1.0000000
B2   B   0.222497489262315   0.277915411297851   0.125242136294823   1.0000000
B2   B   0.722297787330245   0.777753627052165   0.124650632945726   1.0000000
B2   B   0.555871772539927   0.278218340203044   0.125247423796063   1.0000000
B2   B   0.889005407352957   0.277820927303582   0.125295802822974   1.0000000
B2   B   0.055688691240075   0.444435456507281   0.624768314161858   1.0000000
B2   B   0.222441152081224   0.944695682357271   0.624852667717297   1.0000000
B2   B   0.555776110560136   0.944554721946535   0.624746834321618   1.0000000
B2   B   0.389161330975098   0.444376913890268   0.623149640120128   1.0000000
B2   B   0.889005407352957   0.944517813382612   0.624704197177010   1.0000000
B2   B   0.055688691240059   0.944586568065945   0.125231685838196   1.0000000
B2   B   0.721979104307052   0.444301135953292   0.625408027876178   1.0000000
B2   B   0.389133266540856   0.944670812094922   0.125109181588946   1.0000000
B2   B   0.222485929373136   0.444406457833273   0.125022400549057   1.0000000
B2   B   0.222441152081224   0.611078803057175   0.125147332282709   1.0000000
B2   B   0.555892269385963   0.444612801359646   0.131670382084788   1.0000000
B2   B   0.722389475026373   0.944506843521212   0.125335785992444   1.0000000
B2   B   0.888843339978165   0.444406187687180   0.124928661270301   1.0000000
B2   B   0.055567553628973   0.611087824969401   0.624605447031598   1.0000000
B2   B   0.222485929373136   0.111412804873225   0.624977599450978   1.0000000
B2   B   0.721979104307052   0.611011301687242   0.625408027876178   1.0000000
B2   B   0.555787891604803   0.111374243424367   0.625176943915612   1.0000000
B2   B   0.889045004722139   0.111189169027728   0.624494177275594   1.0000000


