data_1
_audit_creation_method   'vasp2cif'
_cell_length_a    14.93631414619966
_cell_length_b    14.936314146199727
_cell_length_c    13.341276283792837
_cell_angle_alpha    90.0
_cell_angle_beta    90.0
_cell_angle_gamma    119.99999999999984

_symmetry_space_group_name_H-M    'P 1'
loop_
_atom_site_label
_atom_site_type_symbol
_atom_site_fract_x
_atom_site_fract_y
_atom_site_fract_z
_atom_site_occupancy
C2   C   0.439733572383950   0.378046935059143   0.375000000000000   1.0000000
C2   C   0.543878953181755   0.409123818027338   0.375000000000000   1.0000000
N2   N   0.111014371214672   0.055529934178528   0.125067855937813   1.0000000
N2   N   0.611116476999858   0.555511889166016   0.124726075578877   1.0000000
N2   N   0.444423942339585   0.055612639081351   0.125035251574451   1.0000000
N2   N   0.944503031836249   0.555601428654655   0.125004628361463   1.0000000
N2   N   0.777680937015981   0.055553239915574   0.125131524911450   1.0000000
N2   N   0.111134455503332   0.722255087594026   0.624968585200777   1.0000000
N2   N   0.444421300774623   0.722198803740341   0.624987278973315   1.0000000
N2   N   0.277686238967354   0.222196266830492   0.625032594750897   1.0000000
N2   N   0.777739452436784   0.722169059876601   0.624903011450929   1.0000000
N2   N   0.611108620430271   0.222329736155406   0.624929648167641   1.0000000
N2   N   0.944365133984246   0.222215053536282   0.624899511701333   1.0000000
N2   N   0.277783323393762   0.722233883954929   0.125006248518596   1.0000000
N2   N   0.111006320547609   0.222176272381230   0.125058376188432   1.0000000
N2   N   0.444401608907854   0.222255673706994   0.124730926653398   1.0000000
N2   N   0.611063805769930   0.722157104129617   0.125088839113266   1.0000000
N2   N   0.944457477534569   0.722241324519997   0.125007204658609   1.0000000
N2   N   0.777732258918378   0.222278805556646   0.125135226462279   1.0000000
N2   N   0.111084682984558   0.888910166924865   0.624970085978448   1.0000000
N2   N   0.444419790451911   0.888913386634856   0.624998491346255   1.0000000
N2   N   0.277725612643471   0.388839315341426   0.624976922613701   1.0000000
N2   N   0.611166899749578   0.388945664661569   0.625909573115143   1.0000000
N2   N   0.777687957590716   0.888841475048463   0.624874546698446   1.0000000
N2   N   0.944456230585891   0.388919957661970   0.624984415531972   1.0000000
N2   N   0.111084361960712   0.388871183152728   0.125079851589694   1.0000000
N2   N   0.277773742214994   0.888927726768440   0.125004367594019   1.0000000
N2   N   0.611042575106627   0.888873990566440   0.125069305010869   1.0000000
N2   N   0.444359407974990   0.388845979196961   0.124050211908822   1.0000000
N2   N   0.944371934762333   0.888859771544544   0.125094276720420   1.0000000
N2   N   0.777831515809181   0.388977867308132   0.124657421617415   1.0000000
N2   N   0.277773545046785   0.555532065260900   0.624965308048042   1.0000000
N2   N   0.111014371214672   0.055529934178528   0.624932144062186   1.0000000
N2   N   0.611116476999858   0.555511889166016   0.625273924421123   1.0000000
N2   N   0.444423942339585   0.055612639081351   0.624964748425548   1.0000000
N2   N   0.944503031836249   0.555601428654655   0.624995371638536   1.0000000
N2   N   0.111133541457443   0.555567690919805   0.125039111054302   1.0000000
N2   N   0.777680937015981   0.055553239915574   0.624868475088550   1.0000000
N2   N   0.277729944739430   0.055579682321920   0.125018451991584   1.0000000
N2   N   0.444429243095977   0.555510017485751   0.124886849327018   1.0000000
N2   N   0.777831450810741   0.555565350785606   0.124646992681868   1.0000000
N2   N   0.611055242769909   0.055608709712441   0.125131519626106   1.0000000
N2   N   0.444429243095977   0.555510017485751   0.625113150672982   1.0000000
N2   N   0.944328993009524   0.055515580901852   0.125086918114149   1.0000000
N2   N   0.277783323393762   0.722233883954929   0.624993751481404   1.0000000
N2   N   0.111006320547609   0.222176272381230   0.624941623811568   1.0000000
N2   N   0.444401608907854   0.222255673706994   0.625269073346602   1.0000000
N2   N   0.611063805769930   0.722157104129617   0.624911160886734   1.0000000
N2   N   0.944457477534569   0.722241324519997   0.624992795341391   1.0000000
N2   N   0.777732258918378   0.222278805556646   0.624864773537721   1.0000000
N2   N   0.111134455503332   0.722255087594026   0.125031414799223   1.0000000
N2   N   0.444421300774623   0.722198803740341   0.125012721026685   1.0000000
N2   N   0.277686238967354   0.222196266830492   0.124967405249103   1.0000000
N2   N   0.777739452436784   0.722169059876601   0.125096988549071   1.0000000
N2   N   0.611108620430271   0.222329736155406   0.125070351832358   1.0000000
N2   N   0.944365133984246   0.222215053536282   0.125100488298667   1.0000000
N2   N   0.111084361960712   0.388871183152728   0.624920148410306   1.0000000
N2   N   0.277773742214994   0.888927726768440   0.624995632405981   1.0000000
N2   N   0.611042575106627   0.888873990566440   0.624930694989130   1.0000000
N2   N   0.444359407974990   0.388845979196961   0.625949788091178   1.0000000
N2   N   0.944371934762333   0.888859771544544   0.624905723279579   1.0000000
N2   N   0.111084682984558   0.888910166924865   0.125029914021552   1.0000000
N2   N   0.777831515809181   0.388977867308132   0.625342578382585   1.0000000
N2   N   0.444419790451911   0.888913386634856   0.125001508653744   1.0000000
N2   N   0.277725612643471   0.388839315341426   0.125023077386300   1.0000000
N2   N   0.277773545046785   0.555532065260900   0.125034691951957   1.0000000
N2   N   0.611166899749578   0.388945664661569   0.124090426884857   1.0000000
N2   N   0.777687957590716   0.888841475048463   0.125125453301554   1.0000000
N2   N   0.944456230585891   0.388919957661970   0.125015584468028   1.0000000
N2   N   0.111133541457443   0.555567690919805   0.624960888945697   1.0000000
N2   N   0.277729944739430   0.055579682321920   0.624981548008416   1.0000000
N2   N   0.777831450810741   0.555565350785606   0.625353007318133   1.0000000
N2   N   0.611055242769909   0.055608709712441   0.624868480373894   1.0000000
N2   N   0.944328993009524   0.055515580901852   0.624913081885851   1.0000000
N2   N   0.050430937749941   0.108692813687477   0.375000000000000   1.0000000
N2   N   0.558507133062177   0.598371032501256   0.375000000000000   1.0000000
N2   N   0.387233778565905   0.114371328242936   0.375000000000000   1.0000000
N2   N   0.894897941139423   0.611362200855112   0.375000000000000   1.0000000
N2   N   0.721185048746509   0.119201017313740   0.375000000000000   1.0000000
N2   N   0.055560039968441   0.777784568357393   0.875000000000000   1.0000000
N2   N   0.388891649423510   0.777787641685414   0.875000000000000   1.0000000
N2   N   0.222222933582650   0.277784985472313   0.875000000000000   1.0000000
N2   N   0.722223161270418   0.777783618419539   0.875000000000000   1.0000000
N2   N   0.555554367733002   0.277777712616328   0.875000000000000   1.0000000
N2   N   0.888893611295791   0.277785893403811   0.875000000000000   1.0000000
N2   N   0.227663254542402   0.780900918679571   0.375000000000000   1.0000000
N2   N   0.051965681497785   0.277572351689572   0.375000000000000   1.0000000
N2   N   0.377436050237221   0.273384699243602   0.375000000000000   1.0000000
N2   N   0.558098901405160   0.774768363118344   0.375000000000000   1.0000000
N2   N   0.887643700545088   0.773031274487235   0.375000000000000   1.0000000
N2   N   0.722218079453943   0.297254822115797   0.375000000000000   1.0000000
N2   N   0.055557022458961   0.944451255850932   0.875000000000000   1.0000000
N2   N   0.388892559703124   0.944450548386829   0.875000000000000   1.0000000
N2   N   0.222224334623578   0.444454340434273   0.875000000000000   1.0000000
N2   N   0.555555608633150   0.444453137524673   0.875000000000000   1.0000000
N2   N   0.722223096033460   0.944449965517031   0.875000000000000   1.0000000
N2   N   0.888898939197210   0.444453085994877   0.875000000000000   1.0000000
N2   N   0.058547826955858   0.446254575631298   0.375000000000000   1.0000000
N2   N   0.222891780006265   0.945500789848883   0.375000000000000   1.0000000
N2   N   0.557847352214242   0.950165366057316   0.375000000000000   1.0000000
N2   N   0.389936936944965   0.436635106194213   0.375000000000000   1.0000000
N2   N   0.885626220661206   0.941329676853617   0.375000000000000   1.0000000
N2   N   0.222222945582541   0.611119151388368   0.875000000000000   1.0000000
N2   N   0.055556373641318   0.111115138612030   0.875000000000000   1.0000000
N2   N   0.555554529858133   0.611115935209123   0.875000000000000   1.0000000
N2   N   0.388887840221022   0.111110150897338   0.875000000000000   1.0000000
N2   N   0.888897064071751   0.611117964706106   0.875000000000000   1.0000000
N2   N   0.063444157156324   0.614754717387931   0.375000000000000   1.0000000
N2   N   0.722222291539808   0.111114586234309   0.875000000000000   1.0000000
N2   N   0.216696209978589   0.108172464714360   0.375000000000000   1.0000000
N2   N   0.393309740466013   0.607735469335477   0.375000000000000   1.0000000
N2   N   0.724167173162152   0.594671212805450   0.375000000000000   1.0000000
N2   N   0.557179758075793   0.127120500265149   0.375000000000000   1.0000000
N2   N   0.388890212408898   0.611119625072357   0.875000000000000   1.0000000
N2   N   0.885304728649857   0.111546854516834   0.375000000000000   1.0000000
N2   N   0.222225147322670   0.777784582927661   0.875000000000000   1.0000000
N2   N   0.055558314792322   0.277785824942940   0.875000000000000   1.0000000
N2   N   0.388886952351259   0.277781625418833   0.875000000000000   1.0000000
N2   N   0.555556040357852   0.777783909517876   0.875000000000000   1.0000000
N2   N   0.888893762403011   0.777786276971604   0.875000000000000   1.0000000
N2   N   0.722225279031832   0.277780743934938   0.875000000000000   1.0000000
N2   N   0.058412655415572   0.778452243936790   0.375000000000000   1.0000000
N2   N   0.393668058415727   0.779373753359447   0.375000000000000   1.0000000
N2   N   0.215797313855762   0.274890412907826   0.375000000000000   1.0000000
N2   N   0.721908933634956   0.770102568739106   0.375000000000000   1.0000000
N2   N   0.546872719398908   0.301932388897853   0.375000000000000   1.0000000
N2   N   0.886592802829828   0.281610205813005   0.375000000000000   1.0000000
N2   N   0.055559877784572   0.444454287923672   0.875000000000000   1.0000000
N2   N   0.222223574542991   0.944448384758897   0.875000000000000   1.0000000
N2   N   0.555555908830458   0.944451398072283   0.875000000000000   1.0000000
N2   N   0.388888401471386   0.444455348902662   0.875000000000000   1.0000000
N2   N   0.888892844628458   0.944451009319251   0.875000000000000   1.0000000
N2   N   0.052496537384680   0.941680324410724   0.375000000000000   1.0000000
N2   N   0.722228605109072   0.444451172057667   0.875000000000000   1.0000000
N2   N   0.392632623573973   0.949704867248084   0.375000000000000   1.0000000
N2   N   0.224218993410934   0.443386868375317   0.375000000000000   1.0000000
N2   N   0.227963763159771   0.612352812817703   0.375000000000000   1.0000000
N2   N   0.721332988888271   0.944412722974824   0.375000000000000   1.0000000
N2   N   0.894452883514494   0.450354689336912   0.375000000000000   1.0000000
N2   N   0.055559406741696   0.611116870268041   0.875000000000000   1.0000000
N2   N   0.222220625035462   0.111114340773519   0.875000000000000   1.0000000
N2   N   0.722224584368665   0.611118533175312   0.875000000000000   1.0000000
N2   N   0.555556031355735   0.111112690014221   0.875000000000000   1.0000000
N2   N   0.888891962637736   0.111116186618987   0.875000000000000   1.0000000
B2   B   0.105866200144122   0.052514696943861   0.375000000000000   1.0000000
B2   B   0.612240499715463   0.534195183656539   0.375000000000000   1.0000000
B2   B   0.446202914552707   0.062636459062372   0.375000000000000   1.0000000
B2   B   0.953863534520960   0.560318932293916   0.375000000000000   1.0000000
B2   B   0.774449301798654   0.058018956941893   0.375000000000000   1.0000000
B2   B   0.111115150789473   0.722228804215004   0.875000000000000   1.0000000
B2   B   0.444446757099191   0.722229663676847   0.875000000000000   1.0000000
B2   B   0.277801020622221   0.222236193413691   0.875000000000000   1.0000000
B2   B   0.777768316545446   0.722208498736058   0.875000000000000   1.0000000
B2   B   0.611104200444598   0.222236063313053   0.875000000000000   1.0000000
B2   B   0.944442199835603   0.222231661317007   0.875000000000000   1.0000000
B2   B   0.282778583020794   0.724167875144465   0.375000000000000   1.0000000
B2   B   0.105084996899182   0.219975800546963   0.375000000000000   1.0000000
B2   B   0.439177699592872   0.225410269770756   0.375000000000000   1.0000000
B2   B   0.611380332110477   0.713423008994477   0.375000000000000   1.0000000
B2   B   0.947082385384148   0.721646699994321   0.375000000000000   1.0000000
B2   B   0.774970821703448   0.232852822415946   0.375000000000000   1.0000000
B2   B   0.111118181160197   0.888892443505349   0.875000000000000   1.0000000
B2   B   0.444446256575963   0.888900561057996   0.875000000000000   1.0000000
B2   B   0.277797720080745   0.388906332929247   0.875000000000000   1.0000000
B2   B   0.611104706888744   0.388894498434019   0.875000000000000   1.0000000
B2   B   0.777769792514241   0.888883061289384   0.875000000000000   1.0000000
B2   B   0.944441749443297   0.388901836171988   0.875000000000000   1.0000000
B2   B   0.112064693537180   0.388961635328232   0.375000000000000   1.0000000
B2   B   0.281375741951993   0.892375464893623   0.375000000000000   1.0000000
B2   B   0.610918993626037   0.889109895636739   0.375000000000000   1.0000000
B2   B   0.941161207653524   0.884989099589801   0.375000000000000   1.0000000
B2   B   0.784769252611367   0.411478126654553   0.375000000000000   1.0000000
B2   B   0.277788925381604   0.555571727959687   0.875000000000000   1.0000000
B2   B   0.111120963905261   0.055560703403594   0.875000000000000   1.0000000
B2   B   0.611106016431417   0.555541062102536   0.875000000000000   1.0000000
B2   B   0.444450988743111   0.055568634482081   0.875000000000000   1.0000000
B2   B   0.944438973705538   0.555559121943830   0.875000000000000   1.0000000
B2   B   0.117005847581596   0.557531465400963   0.375000000000000   1.0000000
B2   B   0.777769634341681   0.055558827699080   0.875000000000000   1.0000000
B2   B   0.276045175328719   0.056296818610468   0.375000000000000   1.0000000
B2   B   0.448091893215657   0.549144007682288   0.375000000000000   1.0000000
B2   B   0.785271013786138   0.541575799854599   0.375000000000000   1.0000000
B2   B   0.610546755905780   0.065340478089516   0.375000000000000   1.0000000
B2   B   0.444455121624426   0.555561015678202   0.875000000000000   1.0000000
B2   B   0.939475677019496   0.053397474547780   0.375000000000000   1.0000000
B2   B   0.277784776113693   0.722235109398558   0.875000000000000   1.0000000
B2   B   0.111120824697261   0.222232746234727   0.875000000000000   1.0000000
B2   B   0.444460560759076   0.222236862554607   0.875000000000000   1.0000000
B2   B   0.611103886315729   0.722212324768593   0.875000000000000   1.0000000
B2   B   0.944440969227287   0.722216746681781   0.875000000000000   1.0000000
B2   B   0.777767425662983   0.222232687655839   0.875000000000000   1.0000000
B2   B   0.116823610652498   0.725455415994271   0.375000000000000   1.0000000
B2   B   0.447528184728060   0.720400560716429   0.375000000000000   1.0000000
B2   B   0.268234041471167   0.217946323162382   0.375000000000000   1.0000000
B2   B   0.776347118279043   0.710844834727718   0.375000000000000   1.0000000
B2   B   0.609899772520506   0.246306924053931   0.375000000000000   1.0000000
B2   B   0.940431478061702   0.223275547820402   0.375000000000000   1.0000000
B2   B   0.111117558175507   0.388904928417928   0.875000000000000   1.0000000
B2   B   0.277788575910930   0.888900122883347   0.875000000000000   1.0000000
B2   B   0.611103151622947   0.888891065105381   0.875000000000000   1.0000000
B2   B   0.444469504913878   0.388903861284735   0.875000000000000   1.0000000
B2   B   0.944443764552804   0.888885258568414   0.875000000000000   1.0000000
B2   B   0.111541245159018   0.889062878787223   0.375000000000000   1.0000000
B2   B   0.777768684583260   0.388896992610114   0.875000000000000   1.0000000
B2   B   0.447265193932608   0.892253432072406   0.375000000000000   1.0000000
B2   B   0.276980284192364   0.385178374885550   0.375000000000000   1.0000000
B2   B   0.282078500468975   0.554877825207756   0.375000000000000   1.0000000
B2   B   0.774835275853518   0.884269505862872   0.375000000000000   1.0000000
B2   B   0.946818757506702   0.392298032708318   0.375000000000000   1.0000000
B2   B   0.111114298600500   0.555568211818354   0.875000000000000   1.0000000
B2   B   0.277792891698662   0.055564776918406   0.875000000000000   1.0000000
B2   B   0.777766400248709   0.555548648215606   0.875000000000000   1.0000000
B2   B   0.611103392179700   0.055564213328105   0.875000000000000   1.0000000
B2   B   0.944443925266302   0.055557492836994   0.875000000000000   1.0000000
B2   B   0.055447180013445   0.111061766033927   0.124991357687194   1.0000000
B2   B   0.555572091955202   0.611006630529479   0.124945022676037   1.0000000
B2   B   0.388904460303562   0.111211966326616   0.124963508347603   1.0000000
B2   B   0.888874918460810   0.611105211294400   0.124892585691233   1.0000000
B2   B   0.722137890219140   0.111160898132360   0.125114939880693   1.0000000
B2   B   0.055547643193187   0.777788423842081   0.624998534255958   1.0000000
B2   B   0.388903484698342   0.777800860997888   0.624990244625109   1.0000000
B2   B   0.222151276490035   0.277736877342767   0.625117457753128   1.0000000
B2   B   0.722155809767334   0.777688865164980   0.624917259636522   1.0000000
B2   B   0.555584814274012   0.277966637874856   0.625095216630156   1.0000000
B2   B   0.888823912676380   0.277815393882241   0.624978173445122   1.0000000
B2   B   0.222250382807222   0.777821172073221   0.124999109806248   1.0000000
B2   B   0.055478853533714   0.277762846080528   0.125004991826202   1.0000000
B2   B   0.388913948724843   0.277838730881893   0.124509285103827   1.0000000
B2   B   0.555526799751720   0.777737437069447   0.125056748194812   1.0000000
B2   B   0.888828585150656   0.777717592020787   0.125023811488937   1.0000000
B2   B   0.722174945991783   0.277881469126194   0.124971199234023   1.0000000
B2   B   0.055489035654178   0.944411379190514   0.624984501744888   1.0000000
B2   B   0.388903065273328   0.944521058716339   0.624967874281600   1.0000000
B2   B   0.222210329460780   0.444430950759068   0.625005317236576   1.0000000
B2   B   0.555543207965886   0.444349149109109   0.625118981398500   1.0000000
B2   B   0.722128571590407   0.944414918596377   0.624926172435039   1.0000000
B2   B   0.888878457992358   0.444486812804375   0.625114846516372   1.0000000
B2   B   0.055543664610559   0.444460647279378   0.125003246284053   1.0000000
B2   B   0.222215065376273   0.944477149419483   0.125002274346980   1.0000000
B2   B   0.555515642667323   0.944486060044678   0.125079643433196   1.0000000
B2   B   0.388931182529345   0.444379395143640   0.124561334064916   1.0000000
B2   B   0.888784230060092   0.944383904821736   0.125040936851650   1.0000000
B2   B   0.722126606914800   0.444429931572592   0.124522337350869   1.0000000
B2   B   0.222248727560418   0.611127322220854   0.624999893375494   1.0000000
B2   B   0.055447180013445   0.111061766033927   0.625008642312806   1.0000000
B2   B   0.555572091955202   0.611006630529479   0.625054977323964   1.0000000
B2   B   0.388904460303562   0.111211966326616   0.625036491652397   1.0000000
B2   B   0.888874918460810   0.611105211294400   0.625107414308768   1.0000000
B2   B   0.055583426294933   0.611143875482317   0.124989454508324   1.0000000
B2   B   0.722137890219140   0.111160898132360   0.624885060119307   1.0000000
B2   B   0.222162161127470   0.111094467622305   0.124964606133481   1.0000000
B2   B   0.388916989618851   0.611081888001982   0.124979494242398   1.0000000
B2   B   0.722156570376278   0.611000287204054   0.124889785505779   1.0000000
B2   B   0.555538710508676   0.111239793167933   0.125157119006779   1.0000000
B2   B   0.388916989618851   0.611081888001982   0.625020505757602   1.0000000
B2   B   0.888777589687259   0.111090754578515   0.125038708939383   1.0000000
B2   B   0.222250382807222   0.777821172073221   0.625000890193752   1.0000000
B2   B   0.055478853533714   0.277762846080528   0.624995008173798   1.0000000
B2   B   0.388913948724843   0.277838730881893   0.625490714896173   1.0000000
B2   B   0.555526799751720   0.777737437069447   0.624943251805188   1.0000000
B2   B   0.888828585150656   0.777717592020787   0.624976188511063   1.0000000
B2   B   0.722174945991783   0.277881469126194   0.625028800765977   1.0000000
B2   B   0.055547643193187   0.777788423842081   0.125001465744042   1.0000000
B2   B   0.388903484698342   0.777800860997888   0.125009755374892   1.0000000
B2   B   0.222151276490035   0.277736877342767   0.124882542246872   1.0000000
B2   B   0.722155809767334   0.777688865164980   0.125082740363477   1.0000000
B2   B   0.555584814274012   0.277966637874856   0.124904783369845   1.0000000
B2   B   0.888823912676380   0.277815393882241   0.125021826554878   1.0000000
B2   B   0.055543664610559   0.444460647279378   0.624996753715947   1.0000000
B2   B   0.222215065376273   0.944477149419483   0.624997725653020   1.0000000
B2   B   0.555515642667323   0.944486060044678   0.624920356566804   1.0000000
B2   B   0.388931182529345   0.444379395143640   0.625438665935083   1.0000000
B2   B   0.888784230060092   0.944383904821736   0.624959063148350   1.0000000
B2   B   0.055489035654178   0.944411379190514   0.125015498255111   1.0000000
B2   B   0.722126606914800   0.444429931572592   0.625477662649131   1.0000000
B2   B   0.388903065273328   0.944521058716339   0.125032125718400   1.0000000
B2   B   0.222210329460780   0.444430950759068   0.124994682763424   1.0000000
B2   B   0.222248727560418   0.611127322220854   0.125000106624505   1.0000000
B2   B   0.555543207965886   0.444349149109109   0.124881018601500   1.0000000
B2   B   0.722128571590407   0.944414918596377   0.125073827564961   1.0000000
B2   B   0.888878457992358   0.444486812804375   0.124885153483628   1.0000000
B2   B   0.055583426294933   0.611143875482317   0.625010545491676   1.0000000
B2   B   0.222162161127470   0.111094467622305   0.625035393866519   1.0000000
B2   B   0.722156570376278   0.611000287204054   0.625110214494221   1.0000000
B2   B   0.555538710508676   0.111239793167933   0.624842880993221   1.0000000
B2   B   0.888777589687259   0.111090754578515   0.624961291060617   1.0000000


