data_1
_audit_creation_method   'vasp2cif'
_cell_length_a    14.93631414619966
_cell_length_b    14.936314146199727
_cell_length_c    13.341276283792837
_cell_angle_alpha    90.0
_cell_angle_beta    90.0
_cell_angle_gamma    119.99999999999984

_symmetry_space_group_name_H-M    'P 1'
loop_
_atom_site_label
_atom_site_type_symbol
_atom_site_fract_x
_atom_site_fract_y
_atom_site_fract_z
_atom_site_occupancy
C2   C   0.444444444444443   0.388888888888886   0.375000000000000   1.0000000
N2   N   0.111103598014359   0.055573510536372   0.124988479012364   1.0000000
N2   N   0.611082915064770   0.555592973699448   0.125063839834079   1.0000000
N2   N   0.444469912522013   0.055573510536372   0.124988479012364   1.0000000
N2   N   0.944426299718614   0.555550694515872   0.124909278465337   1.0000000
N2   N   0.777777777777779   0.055555555555557   0.124834999299822   1.0000000
N2   N   0.111111111111114   0.722222222222221   0.625105131386624   1.0000000
N2   N   0.444469912522013   0.722229735318977   0.625011520987637   1.0000000
N2   N   0.277740359633883   0.222250418268565   0.624936160165920   1.0000000
N2   N   0.777759822796964   0.722229735318977   0.625011520987637   1.0000000
N2   N   0.611165032284663   0.222168301048675   0.625253035211381   1.0000000
N2   N   0.944396777937568   0.222206887704587   0.625147370094779   1.0000000
N2   N   0.277782638817465   0.722208938536080   0.124909278465337   1.0000000
N2   N   0.111003268764022   0.222168301048675   0.124746964788620   1.0000000
N2   N   0.444510058634682   0.222250418268565   0.125063839834079   1.0000000
N2   N   0.611165032284663   0.722330064569314   0.124746964788620   1.0000000
N2   N   0.944426299718614   0.722208938536080   0.124909278465337   1.0000000
N2   N   0.777810109767022   0.222206887704587   0.124852629905218   1.0000000
N2   N   0.111124394797256   0.888907033614715   0.625090721534663   1.0000000
N2   N   0.444443367678080   0.888888350505705   0.625098188144083   1.0000000
N2   N   0.277740359633883   0.388823274698647   0.624936160165920   1.0000000
N2   N   0.611082915064770   0.388823274698647   0.624936160165920   1.0000000
N2   N   0.777810109767022   0.888936555395761   0.625147370094779   1.0000000
N2   N   0.944444982827624   0.388889965655248   0.625098188144083   1.0000000
N2   N   0.111103598014359   0.388863420811315   0.124988479012364   1.0000000
N2   N   0.277782638817465   0.888907033614715   0.124909278465337   1.0000000
N2   N   0.611126445628748   0.888936555395761   0.124852629905218   1.0000000
N2   N   0.444444444444443   0.388888888888886   0.125379508975728   1.0000000
N2   N   0.944444982827624   0.888888350505705   0.124901811855917   1.0000000
N2   N   0.777759822796964   0.388863420811315   0.124988479012364   1.0000000
N2   N   0.277802277540106   0.555531055793230   0.625030494901986   1.0000000
N2   N   0.111103598014359   0.055573510536372   0.625011520987637   1.0000000
N2   N   0.611082915064770   0.555592973699448   0.624936160165920   1.0000000
N2   N   0.444469912522013   0.055573510536372   0.625011520987637   1.0000000
N2   N   0.944426299718614   0.555550694515872   0.625090721534663   1.0000000
N2   N   0.111124394797256   0.555550694515872   0.124909278465337   1.0000000
N2   N   0.777777777777779   0.055555555555557   0.625165000700179   1.0000000
N2   N   0.277802277540106   0.055604555080213   0.124969505098014   1.0000000
N2   N   0.444510058634682   0.555592973699448   0.125063839834079   1.0000000
N2   N   0.777728778253123   0.555531055793230   0.124969505098014   1.0000000
N2   N   0.611126445628748   0.055523223566316   0.124852629905218   1.0000000
N2   N   0.444510058634682   0.555592973699448   0.624936160165920   1.0000000
N2   N   0.944396777937568   0.055523223566316   0.124852629905218   1.0000000
N2   N   0.277782638817465   0.722208938536080   0.625090721534663   1.0000000
N2   N   0.111003268764022   0.222168301048675   0.625253035211381   1.0000000
N2   N   0.444510058634682   0.222250418268565   0.624936160165920   1.0000000
N2   N   0.611165032284663   0.722330064569314   0.625253035211381   1.0000000
N2   N   0.944426299718614   0.722208938536080   0.625090721534663   1.0000000
N2   N   0.777810109767022   0.222206887704587   0.625147370094779   1.0000000
N2   N   0.111111111111114   0.722222222222221   0.124894868613375   1.0000000
N2   N   0.444469912522013   0.722229735318977   0.124988479012364   1.0000000
N2   N   0.277740359633883   0.222250418268565   0.125063839834079   1.0000000
N2   N   0.777759822796964   0.722229735318977   0.124988479012364   1.0000000
N2   N   0.611165032284663   0.222168301048675   0.124746964788620   1.0000000
N2   N   0.944396777937568   0.222206887704587   0.124852629905218   1.0000000
N2   N   0.111103598014359   0.388863420811315   0.625011520987637   1.0000000
N2   N   0.277782638817465   0.888907033614715   0.625090721534663   1.0000000
N2   N   0.611126445628748   0.888936555395761   0.625147370094779   1.0000000
N2   N   0.444444444444443   0.388888888888886   0.624620491024272   1.0000000
N2   N   0.944444982827624   0.888888350505705   0.625098188144083   1.0000000
N2   N   0.111124394797256   0.888907033614715   0.124909278465337   1.0000000
N2   N   0.777759822796964   0.388863420811315   0.625011520987637   1.0000000
N2   N   0.444443367678080   0.888888350505705   0.124901811855917   1.0000000
N2   N   0.277740359633883   0.388823274698647   0.125063839834079   1.0000000
N2   N   0.277802277540106   0.555531055793230   0.124969505098014   1.0000000
N2   N   0.611082915064770   0.388823274698647   0.125063839834079   1.0000000
N2   N   0.777810109767022   0.888936555395761   0.124852629905218   1.0000000
N2   N   0.944444982827624   0.388889965655248   0.124901811855917   1.0000000
N2   N   0.111124394797256   0.555550694515872   0.625090721534663   1.0000000
N2   N   0.277802277540106   0.055604555080213   0.625030494901986   1.0000000
N2   N   0.777728778253123   0.555531055793230   0.625030494901986   1.0000000
N2   N   0.611126445628748   0.055523223566316   0.625147370094779   1.0000000
N2   N   0.944396777937568   0.055523223566316   0.625147370094779   1.0000000
N2   N   0.055785094396128   0.111252640472251   0.375000000000000   1.0000000
N2   N   0.555430262691961   0.610860525383924   0.375000000000000   1.0000000
N2   N   0.388582073030613   0.111640506329257   0.375000000000000   1.0000000
N2   N   0.889041316735195   0.611187325034269   0.375000000000000   1.0000000
N2   N   0.722173063219377   0.111160270113958   0.375000000000000   1.0000000
N2   N   0.055559759148938   0.777773574184399   0.875000000000000   1.0000000
N2   N   0.388890510476035   0.777770572662533   0.875000000000000   1.0000000
N2   N   0.222216572713869   0.277774953023603   0.875000000000000   1.0000000
N2   N   0.722232639542546   0.777772008846757   0.875000000000000   1.0000000
N2   N   0.555558380309734   0.277774953023603   0.875000000000000   1.0000000
N2   N   0.888893963989266   0.277787927978541   0.875000000000000   1.0000000
N2   N   0.222161360476643   0.777747346904990   0.375000000000000   1.0000000
N2   N   0.055785094396128   0.277865787257213   0.375000000000000   1.0000000
N2   N   0.390345306577983   0.280690613155974   0.375000000000000   1.0000000
N2   N   0.555467546076123   0.777548238937209   0.375000000000000   1.0000000
N2   N   0.888718018653508   0.777541759777867   0.375000000000000   1.0000000
N2   N   0.722080692861085   0.277865787257213   0.375000000000000   1.0000000
N2   N   0.055562760670804   0.944453271146838   0.875000000000000   1.0000000
N2   N   0.388890510476035   0.944453271146838   0.875000000000000   1.0000000
N2   N   0.222216108865085   0.444436739414558   0.875000000000000   1.0000000
N2   N   0.555544021975058   0.444438677654193   0.875000000000000   1.0000000
N2   N   0.722224999850434   0.944449999700864   0.875000000000000   1.0000000
N2   N   0.888880062186491   0.444442822857294   0.875000000000000   1.0000000
N2   N   0.055791573555469   0.444509592208977   0.375000000000000   1.0000000
N2   N   0.222146008299065   0.944292016598133   0.375000000000000   1.0000000
N2   N   0.555453208310521   0.944393270821923   0.375000000000000   1.0000000
N2   N   0.390345306577983   0.442988026755345   0.375000000000000   1.0000000
N2   N   0.888940062511406   0.944393270821923   0.375000000000000   1.0000000
N2   N   0.721692827004081   0.444751260302715   0.375000000000000   1.0000000
N2   N   0.222226532200204   0.611106801133134   0.875000000000000   1.0000000
N2   N   0.055561324486578   0.111100693790790   0.875000000000000   1.0000000
N2   N   0.555558380309734   0.611116760619466   0.875000000000000   1.0000000
N2   N   0.388896593918771   0.111112702783863   0.875000000000000   1.0000000
N2   N   0.888880268932918   0.611106801133134   0.875000000000000   1.0000000
N2   N   0.055585986428347   0.611171972856695   0.375000000000000   1.0000000
N2   N   0.722224999850434   0.111108333482903   0.875000000000000   1.0000000
N2   N   0.223058433298636   0.111640506329257   0.375000000000000   1.0000000
N2   N   0.388582073030613   0.610274900034701   0.375000000000000   1.0000000
N2   N   0.721692827004081   0.610274900034701   0.375000000000000   1.0000000
N2   N   0.555467546076123   0.111252640472251   0.375000000000000   1.0000000
N2   N   0.388896593918771   0.611117224468250   0.875000000000000   1.0000000
N2   N   0.888987206894573   0.111160270113958   0.375000000000000   1.0000000
N2   N   0.222213815035460   0.777773574184399   0.875000000000000   1.0000000
N2   N   0.055561324486578   0.277793964029124   0.875000000000000   1.0000000
N2   N   0.388894655679135   0.277789311358278   0.875000000000000   1.0000000
N2   N   0.555539369304210   0.777772008846757   0.875000000000000   1.0000000
N2   N   0.888880062186491   0.777770572662533   0.875000000000000   1.0000000
N2   N   0.722232639542546   0.277793964029124   0.875000000000000   1.0000000
N2   N   0.055585986428347   0.777747346904990   0.375000000000000   1.0000000
N2   N   0.388823741124352   0.777541759777867   0.375000000000000   1.0000000
N2   N   0.222472807949413   0.277903070641374   0.375000000000000   1.0000000
N2   N   0.722080692861085   0.777548238937209   0.375000000000000   1.0000000
N2   N   0.555430262691961   0.277903070641374   0.375000000000000   1.0000000
N2   N   0.888940062511406   0.277880125022815   0.375000000000000   1.0000000
N2   N   0.055562760670804   0.444442822857294   0.875000000000000   1.0000000
N2   N   0.222226532200204   0.944453064400410   0.875000000000000   1.0000000
N2   N   0.555545405354796   0.944439369344063   0.875000000000000   1.0000000
N2   N   0.388894655679135   0.444438677654193   0.875000000000000   1.0000000
N2   N   0.888893963989266   0.944439369344063   0.875000000000000   1.0000000
N2   N   0.055791573555469   0.944615314679821   0.375000000000000   1.0000000
N2   N   0.722220630549474   0.444436739414558   0.875000000000000   1.0000000
N2   N   0.388823741124352   0.944615314679821   0.375000000000000   1.0000000
N2   N   0.223058433298636   0.444751260302715   0.375000000000000   1.0000000
N2   N   0.222146008299065   0.611187325034269   0.375000000000000   1.0000000
N2   N   0.552642720177362   0.442988026755345   0.375000000000000   1.0000000
N2   N   0.722173063219377   0.944346126438755   0.375000000000000   1.0000000
N2   N   0.888718018653508   0.444509592208977   0.375000000000000   1.0000000
N2   N   0.055559759148938   0.611119518297878   0.875000000000000   1.0000000
N2   N   0.222216108865085   0.111112702783863   0.875000000000000   1.0000000
N2   N   0.722220630549474   0.611117224468250   0.875000000000000   1.0000000
N2   N   0.555539369304210   0.111100693790790   0.875000000000000   1.0000000
N2   N   0.888883333632464   0.111108333482903   0.875000000000000   1.0000000
B2   B   0.111991242649144   0.056174275075395   0.375000000000000   1.0000000
B2   B   0.609871835640583   0.553591111106281   0.375000000000000   1.0000000
B2   B   0.444183032426251   0.056174275075395   0.375000000000000   1.0000000
B2   B   0.944435712950599   0.555574675610355   0.375000000000000   1.0000000
B2   B   0.777777777777779   0.055555555555557   0.375000000000000   1.0000000
B2   B   0.111111111111114   0.722222222222221   0.875000000000000   1.0000000
B2   B   0.444445994085410   0.722201031289158   0.875000000000000   1.0000000
B2   B   0.277783077119777   0.222278089354354   0.875000000000000   1.0000000
B2   B   0.777755037203749   0.722201031289158   0.875000000000000   1.0000000
B2   B   0.611073631020593   0.222259702312742   0.875000000000000   1.0000000
B2   B   0.944434449551334   0.222258728747235   0.875000000000000   1.0000000
B2   B   0.277758657722982   0.722194370673584   0.375000000000000   1.0000000
B2   B   0.112177068624952   0.222755200979140   0.375000000000000   1.0000000
B2   B   0.443719275465696   0.223461497692752   0.375000000000000   1.0000000
B2   B   0.610578132354196   0.721156264708382   0.375000000000000   1.0000000
B2   B   0.944435712950599   0.722194370673584   0.375000000000000   1.0000000
B2   B   0.777563397922574   0.222388253946435   0.375000000000000   1.0000000
B2   B   0.111168467533193   0.888929669848815   0.875000000000000   1.0000000
B2   B   0.444486091115353   0.888909712224342   0.875000000000000   1.0000000
B2   B   0.277783077119777   0.388838321098750   0.875000000000000   1.0000000
B2   B   0.611055243978981   0.388838321098750   0.875000000000000   1.0000000
B2   B   0.777824279195903   0.888898883781994   0.875000000000000   1.0000000
B2   B   0.944423621108987   0.388847242217975   0.875000000000000   1.0000000
B2   B   0.111991242649144   0.389150300907078   0.375000000000000   1.0000000
B2   B   0.277758657722982   0.888897620382730   0.375000000000000   1.0000000
B2   B   0.610945079386900   0.888508477309464   0.375000000000000   1.0000000
B2   B   0.944482213647669   0.888851119685660   0.375000000000000   1.0000000
B2   B   0.777159058257940   0.389150300907078   0.375000000000000   1.0000000
B2   B   0.277773547281528   0.555559786051808   0.875000000000000   1.0000000
B2   B   0.111132302044176   0.055578296129587   0.875000000000000   1.0000000
B2   B   0.611055243978981   0.555550256213561   0.875000000000000   1.0000000
B2   B   0.444445994085410   0.055578296129587   0.875000000000000   1.0000000
B2   B   0.944403663484513   0.555572131017709   0.875000000000000   1.0000000
B2   B   0.111138962659752   0.555574675610355   0.375000000000000   1.0000000
B2   B   0.777777777777779   0.055555555555557   0.875000000000000   1.0000000
B2   B   0.277800982576707   0.055601965153414   0.375000000000000   1.0000000
B2   B   0.443719275465696   0.553591111106281   0.375000000000000   1.0000000
B2   B   0.777731368179922   0.555532350756628   0.375000000000000   1.0000000
B2   B   0.610945079386900   0.055769935410764   0.375000000000000   1.0000000
B2   B   0.444495012234578   0.555550256213561   0.875000000000000   1.0000000
B2   B   0.944824856023864   0.055769935410764   0.375000000000000   1.0000000
B2   B   0.277761202315629   0.722164865800142   0.875000000000000   1.0000000
B2   B   0.111186071292155   0.222259702312742   0.875000000000000   1.0000000
B2   B   0.444495012234578   0.222278089354354   0.875000000000000   1.0000000
B2   B   0.611073631020593   0.722147262041180   0.875000000000000   1.0000000
B2   B   0.944403663484513   0.722164865800142   0.875000000000000   1.0000000
B2   B   0.777824279195903   0.222258728747235   0.875000000000000   1.0000000
B2   B   0.111111111111114   0.722222222222221   0.375000000000000   1.0000000
B2   B   0.444183032426251   0.721342090684191   0.375000000000000   1.0000000
B2   B   0.279742222227056   0.223461497692752   0.375000000000000   1.0000000
B2   B   0.777159058257940   0.721342090684191   0.375000000000000   1.0000000
B2   B   0.610578132354196   0.222755200979140   0.375000000000000   1.0000000
B2   B   0.944824856023864   0.222388253946435   0.375000000000000   1.0000000
B2   B   0.111132302044176   0.388887339247918   0.875000000000000   1.0000000
B2   B   0.277761202315629   0.888929669848815   0.875000000000000   1.0000000
B2   B   0.611074604586101   0.888898883781994   0.875000000000000   1.0000000
B2   B   0.444444444444443   0.388888888888886   0.875000000000000   1.0000000
B2   B   0.944423621108987   0.888909712224342   0.875000000000000   1.0000000
B2   B   0.111138962659752   0.888897620382730   0.375000000000000   1.0000000
B2   B   0.777755037203749   0.388887339247918   0.875000000000000   1.0000000
B2   B   0.444368906037985   0.888851119685660   0.375000000000000   1.0000000
B2   B   0.279742222227056   0.389614057867633   0.375000000000000   1.0000000
B2   B   0.277800982576707   0.555532350756628   0.375000000000000   1.0000000
B2   B   0.609871835640583   0.389614057867633   0.375000000000000   1.0000000
B2   B   0.777563397922574   0.888508477309464   0.375000000000000   1.0000000
B2   B   0.944482213647669   0.388964427295344   0.375000000000000   1.0000000
B2   B   0.111168467533193   0.555572131017709   0.875000000000000   1.0000000
B2   B   0.277773547281528   0.055547094563056   0.875000000000000   1.0000000
B2   B   0.777786238770280   0.555559786051808   0.875000000000000   1.0000000
B2   B   0.611074604586101   0.055509054137434   0.875000000000000   1.0000000
B2   B   0.944434449551334   0.055509054137434   0.875000000000000   1.0000000
B2   B   0.055561533679355   0.111147728252385   0.125001513793871   1.0000000
B2   B   0.555540194934707   0.611080389869416   0.125221096260831   1.0000000
B2   B   0.388976023180599   0.111257958852982   0.125238376414999   1.0000000
B2   B   0.888782984774374   0.611058159053856   0.125026301725304   1.0000000
B2   B   0.722238770746296   0.111094562587038   0.124973608905870   1.0000000
B2   B   0.055557405103794   0.777775928229542   0.625001958288641   1.0000000
B2   B   0.388940619325807   0.777745570228627   0.624971803554535   1.0000000
B2   B   0.222252943463922   0.277793138398628   0.624778903739172   1.0000000
B2   B   0.722185605080951   0.777771799653982   0.624998486206130   1.0000000
B2   B   0.555540194934707   0.277793138398628   0.624778903739172   1.0000000
B2   B   0.888872735460008   0.277745470920021   0.625027456893659   1.0000000
B2   B   0.222218523125749   0.777775928229542   0.124998041711356   1.0000000
B2   B   0.055561533679355   0.277747138760306   0.125001513793871   1.0000000
B2   B   0.388945173583478   0.277890347166959   0.125923118724869   1.0000000
B2   B   0.555586194573030   0.777771799653982   0.125001513793871   1.0000000
B2   B   0.888804950902814   0.777745570228627   0.125028196445467   1.0000000
B2   B   0.722185605080951   0.277747138760306   0.125001513793871   1.0000000
B2   B   0.055587763104707   0.944528382430514   0.624971803554535   1.0000000
B2   B   0.388940619325807   0.944528382430514   0.624971803554535   1.0000000
B2   B   0.222281935672376   0.444357310152730   0.624761623585000   1.0000000
B2   B   0.555442986166373   0.444388159749851   0.624076881275131   1.0000000
B2   B   0.722238770746296   0.944477541492596   0.625026391094129   1.0000000
B2   B   0.888804950902814   0.444392714007522   0.624971803554535   1.0000000
B2   B   0.055587763104707   0.444392714007522   0.125028196445467   1.0000000
B2   B   0.222275174279479   0.944550348558954   0.125026301725304   1.0000000
B2   B   0.555587862413313   0.944460597873320   0.124972543106339   1.0000000
B2   B   0.388945173583478   0.444388159749851   0.125923118724869   1.0000000
B2   B   0.888872735460008   0.944460597873320   0.124972543106339   1.0000000
B2   B   0.722075374480354   0.444357310152730   0.125238376414999   1.0000000
B2   B   0.222275174279479   0.611058159053856   0.624973698274694   1.0000000
B2   B   0.055561533679355   0.111147728252385   0.624998486206130   1.0000000
B2   B   0.555540194934707   0.611080389869416   0.624778903739172   1.0000000
B2   B   0.388976023180599   0.111257958852982   0.624761623585000   1.0000000
B2   B   0.888782984774374   0.611058159053856   0.624973698274694   1.0000000
B2   B   0.055557405103794   0.611114810207587   0.124998041711356   1.0000000
B2   B   0.722238770746296   0.111094562587038   0.625026391094129   1.0000000
B2   B   0.222281935672376   0.111257958852982   0.125238376414999   1.0000000
B2   B   0.388976023180599   0.611051397660961   0.125238376414999   1.0000000
B2   B   0.722075374480354   0.611051397660961   0.125238376414999   1.0000000
B2   B   0.555586194573031   0.111147728252385   0.125001513793871   1.0000000
B2   B   0.388976023180599   0.611051397660961   0.624761623585000   1.0000000
B2   B   0.888855791840733   0.111094562587038   0.124973608905870   1.0000000
B2   B   0.222218523125749   0.777775928229542   0.625001958288641   1.0000000
B2   B   0.055561533679355   0.277747138760306   0.624998486206130   1.0000000
B2   B   0.388945173583478   0.277890347166959   0.624076881275131   1.0000000
B2   B   0.555586194573030   0.777771799653982   0.624998486206130   1.0000000
B2   B   0.888804950902814   0.777745570228627   0.624971803554535   1.0000000
B2   B   0.722185605080951   0.277747138760306   0.624998486206130   1.0000000
B2   B   0.055557405103794   0.777775928229542   0.124998041711356   1.0000000
B2   B   0.388940619325807   0.777745570228627   0.125028196445467   1.0000000
B2   B   0.222252943463922   0.277793138398628   0.125221096260831   1.0000000
B2   B   0.722185605080951   0.777771799653982   0.125001513793871   1.0000000
B2   B   0.555540194934707   0.277793138398628   0.125221096260831   1.0000000
B2   B   0.888872735460008   0.277745470920021   0.124972543106339   1.0000000
B2   B   0.055587763104707   0.444392714007522   0.624971803554535   1.0000000
B2   B   0.222275174279479   0.944550348558954   0.624973698274694   1.0000000
B2   B   0.555587862413313   0.944460597873320   0.625027456893659   1.0000000
B2   B   0.388945173583478   0.444388159749851   0.624076881275131   1.0000000
B2   B   0.888872735460008   0.944460597873320   0.625027456893659   1.0000000
B2   B   0.055587763104707   0.944528382430514   0.125028196445467   1.0000000
B2   B   0.722075374480354   0.444357310152730   0.624761623585000   1.0000000
B2   B   0.388940619325807   0.944528382430514   0.125028196445467   1.0000000
B2   B   0.222281935672376   0.444357310152730   0.125238376414999   1.0000000
B2   B   0.222275174279479   0.611058159053856   0.125026301725304   1.0000000
B2   B   0.555442986166373   0.444388159749851   0.125923118724869   1.0000000
B2   B   0.722238770746296   0.944477541492596   0.124973608905870   1.0000000
B2   B   0.888804950902814   0.444392714007522   0.125028196445467   1.0000000
B2   B   0.055557405103794   0.611114810207587   0.625001958288641   1.0000000
B2   B   0.222281935672376   0.111257958852982   0.624761623585000   1.0000000
B2   B   0.722075374480354   0.611051397660961   0.624761623585000   1.0000000
B2   B   0.555586194573031   0.111147728252385   0.624998486206130   1.0000000
B2   B   0.888855791840733   0.111094562587038   0.625026391094129   1.0000000


