data_1
_audit_creation_method   'vasp2cif'
_cell_length_a    17.52789999999977
_cell_length_b    17.52789999999977
_cell_length_c    15.0
_cell_angle_alpha    90.0
_cell_angle_beta    90.0
_cell_angle_gamma    119.99999999999916

_symmetry_space_group_name_H-M    'P 1'
loop_
_atom_site_label
_atom_site_type_symbol
_atom_site_fract_x
_atom_site_fract_y
_atom_site_fract_z
_atom_site_occupancy
B2   B   0.905319519935404   0.952945208817764   0.111009682989365   1.0000000
B2   B   0.904905736429558   0.095410646037899   0.111044378309037   1.0000000
B2   B   0.904777025830292   0.238149468897338   0.111049285046533   1.0000000
B2   B   0.904568369640402   0.380877603675923   0.111007061185882   1.0000000
B2   B   0.904935060503587   0.523862480178938   0.111005359295603   1.0000000
B2   B   0.906362311099552   0.667236916593759   0.111074659350495   1.0000000
B2   B   0.906188467510851   0.810525671624240   0.111048078512983   1.0000000
B2   B   0.048105032044252   0.952738020504796   0.111014543293791   1.0000000
B2   B   0.047920365648120   0.095511976416430   0.111015012005726   1.0000000
B2   B   0.047809169653590   0.238239103043510   0.111000513476837   1.0000000
B2   B   0.047663307101721   0.380916604928171   0.111013574776041   1.0000000
B2   B   0.047529866852880   0.523762536170325   0.111007760479425   1.0000000
B2   B   0.047902580154185   0.666772134438706   0.111030371071192   1.0000000
B2   B   0.048109324928275   0.809760068289730   0.111022594004871   1.0000000
B2   B   0.190210056590944   0.951957887857917   0.111006253294703   1.0000000
B2   B   0.190418570938906   0.094952643430257   0.111051050632598   1.0000000
B2   B   0.190723115613944   0.238208620600023   0.111007489380200   1.0000000
B2   B   0.190869059391444   0.380996098944536   0.111004912212657   1.0000000
B2   B   0.190262994317528   0.523862507818807   0.111048003256087   1.0000000
B2   B   0.189856492589991   0.666793347795744   0.111046997808871   1.0000000
B2   B   0.190343428712942   0.809541566684952   0.110997444934729   1.0000000
B2   B   0.332968929770565   0.951970130619873   0.111025032851459   1.0000000
B2   B   0.332306376827975   0.093478412859619   0.111084930135777   1.0000000
B2   B   0.332831042429188   0.235894093521235   0.111062629301176   1.0000000
B2   B   0.334250696577717   0.381244593139413   0.111070225655752   1.0000000
B2   B   0.333343603219515   0.524784794121770   0.111062835841006   1.0000000
B2   B   0.331650842027446   0.667238764121738   0.111061123492502   1.0000000
B2   B   0.332855920448767   0.809797924429495   0.111041463796253   1.0000000
B2   B   0.475927700677777   0.952571633298603   0.111014986752598   1.0000000
B2   B   0.475717797800280   0.094898254677775   0.111006629569456   1.0000000
B2   B   0.474026907557467   0.235908679762933   0.111019557358829   1.0000000
B2   B   0.473000865538455   0.667158595757390   0.110958437818025   1.0000000
B2   B   0.475584511997614   0.810014436779099   0.111030756592556   1.0000000
B2   B   0.618819122848664   0.952518388967809   0.111015572690481   1.0000000
B2   B   0.618861110397936   0.095198847402014   0.111009915672185   1.0000000
B2   B   0.618551985987390   0.237615426898334   0.111011164421062   1.0000000
B2   B   0.617279415354401   0.380132688775666   0.111008168130227   1.0000000
B2   B   0.621518506523430   0.667866681718832   0.110929694166318   1.0000000
B2   B   0.618692761279859   0.809722014407325   0.110982714840245   1.0000000
B2   B   0.761997645247958   0.952592230811708   0.111001537896132   1.0000000
B2   B   0.761885979570996   0.095333075224052   0.111049483943298   1.0000000
B2   B   0.761778238243295   0.238133509810231   0.111059679630453   1.0000000
B2   B   0.761320607863300   0.380818242381419   0.111011098765814   1.0000000
B2   B   0.762929337296241   0.525412677378200   0.111014167423526   1.0000000
B2   B   0.766043430696695   0.668026559382582   0.111022261727068   1.0000000
B2   B   0.762865344439695   0.810580637167942   0.111010915990657   1.0000000
C2   C   0.474513163739552   0.377460882007003   0.111164774044751   1.0000000
C2   C   0.474792504647465   0.521028503653960   0.111154359062561   1.0000000
C2   C   0.515858895264796   0.470139346232904   0.111321633860175   1.0000000
C2   C   0.520810659481192   0.613639553504426   0.110844831646917   1.0000000
N2   N   0.953179811102883   0.905536851105693   0.111002834659151   1.0000000
N2   N   0.952950249345856   0.048172817939204   0.111006222802428   1.0000000
N2   N   0.952731716306000   0.190739984794466   0.111019351312569   1.0000000
N2   N   0.952458839017977   0.333383821058412   0.111009131344534   1.0000000
N2   N   0.952229991598759   0.476027569496439   0.110974850971474   1.0000000
N2   N   0.952872876082668   0.618986614529324   0.111019260357026   1.0000000
N2   N   0.953165791280441   0.762325404631218   0.111043646030829   1.0000000
N2   N   0.095490060412798   0.904993047790035   0.110988477895730   1.0000000
N2   N   0.095813619059160   0.048172272919996   0.111006851420555   1.0000000
N2   N   0.096103632437024   0.191059530927003   0.110986769543666   1.0000000
N2   N   0.096006875700190   0.333557779391307   0.110982820073617   1.0000000
N2   N   0.095371944100108   0.476071499555841   0.111004812235807   1.0000000
N2   N   0.095051197471024   0.618906522935079   0.111014150084009   1.0000000
N2   N   0.095407189964760   0.761985195397283   0.110997542667937   1.0000000
N2   N   0.238034325283826   0.904810048808849   0.110979463316505   1.0000000
N2   N   0.237906173970190   0.047463954569654   0.111038953521333   1.0000000
N2   N   0.238961059400497   0.191082244174838   0.111026089690739   1.0000000
N2   N   0.239964485563187   0.333875497005902   0.110990880737823   1.0000000
N2   N   0.238861320532083   0.476124851453123   0.111024356589991   1.0000000
N2   N   0.237199770151137   0.618900652295420   0.111041621559400   1.0000000
N2   N   0.237846195743114   0.761960442273834   0.111011955111920   1.0000000
N2   N   0.380757712321942   0.904904790590474   0.111011567658726   1.0000000
N2   N   0.380673910200150   0.047403915650423   0.111027764891507   1.0000000
N2   N   0.380112706495822   0.189389736242319   0.111052805862465   1.0000000
N2   N   0.384086688060754   0.333560388516684   0.111057999984680   1.0000000
N2   N   0.382530143961825   0.476102628243593   0.111095079359123   1.0000000
N2   N   0.378993154667809   0.619157621703293   0.111024070125850   1.0000000
N2   N   0.380337806545019   0.762074222957187   0.111031978887645   1.0000000
N2   N   0.523480289044447   0.905021831211796   0.111006331723724   1.0000000
N2   N   0.523548333252498   0.047925049974632   0.110983589014349   1.0000000
N2   N   0.522994492108724   0.190789302603407   0.110982468055739   1.0000000
N2   N   0.519577157091524   0.333037131230125   0.111031512082461   1.0000000
N2   N   0.522698797554418   0.761718682269894   0.110979059076302   1.0000000
N2   N   0.666355788428679   0.904708270663078   0.110980431440750   1.0000000
N2   N   0.666481718738446   0.047725479996125   0.111009832676180   1.0000000
N2   N   0.666226833751255   0.190550419493697   0.111017024611296   1.0000000
N2   N   0.665065636153732   0.332647101520102   0.110996917324756   1.0000000
N2   N   0.668852218324514   0.471272128106393   0.110903352645973   1.0000000
N2   N   0.673889937520451   0.629886959020188   0.110919765074113   1.0000000
N2   N   0.667400440081874   0.763177018430651   0.110975962559324   1.0000000
N2   N   0.810124890043120   0.905513630891632   0.110985415920434   1.0000000
N2   N   0.809593079229712   0.047806565632422   0.111022656004459   1.0000000
N2   N   0.809443356714022   0.190608674738669   0.111046069325765   1.0000000
N2   N   0.809009846235975   0.333323888818536   0.111014164408538   1.0000000
N2   N   0.809069395261018   0.475881512863545   0.110997786742388   1.0000000
N2   N   0.811414413334500   0.619575632173226   0.111041008137473   1.0000000
N2   N   0.811082712220107   0.763432010966900   0.111018935858056   1.0000000


