data_1
_audit_creation_method   'vasp2cif'
_cell_length_a    14.93631414619966
_cell_length_b    14.936314146199727
_cell_length_c    13.341276283792837
_cell_angle_alpha    90.0
_cell_angle_beta    90.0
_cell_angle_gamma    119.99999999999984

_symmetry_space_group_name_H-M    'P 1'
loop_
_atom_site_label
_atom_site_type_symbol
_atom_site_fract_x
_atom_site_fract_y
_atom_site_fract_z
_atom_site_occupancy
Sn2   Sn   0.494256097259396   0.413794715296349   0.375000000000000   1.0000000
N2   N   0.111285300823969   0.055623202716932   0.124659867068400   1.0000000
N2   N   0.611336279568190   0.555743954221472   0.123383834031457   1.0000000
N2   N   0.444656184027976   0.055634314202617   0.124934939342598   1.0000000
N2   N   0.944619085887484   0.555646435545952   0.124936919909069   1.0000000
N2   N   0.777989070851704   0.055661202092536   0.124796609043395   1.0000000
N2   N   0.111291860257274   0.722312596795279   0.625925714190675   1.0000000
N2   N   0.444656184027976   0.722355203158660   0.625065060657408   1.0000000
N2   N   0.277910397941016   0.222264267713816   0.625291756188597   1.0000000
N2   N   0.777967399621449   0.722328902180833   0.624904210129486   1.0000000
N2   N   0.611314904704907   0.222287686746157   0.624913772354024   1.0000000
N2   N   0.944636872975461   0.222321973556244   0.625537522432759   1.0000000
N2   N   0.277974318318220   0.722329479396522   0.124040477168156   1.0000000
N2   N   0.111285446669608   0.222309390001482   0.124627900960422   1.0000000
N2   N   0.444646356257992   0.222292489957929   0.124762560314482   1.0000000
N2   N   0.611314904704907   0.722360551292008   0.125086227645979   1.0000000
N2   N   0.944619085887484   0.722305983674816   0.124936919909069   1.0000000
N2   N   0.777985386021022   0.222316318157994   0.125017629767445   1.0000000
N2   N   0.111291931503706   0.888966355704811   0.625610122021660   1.0000000
N2   N   0.444655950656641   0.888994641994961   0.625362680466894   1.0000000
N2   N   0.277910397941016   0.388979463560599   0.625291756188597   1.0000000
N2   N   0.611336279568190   0.388925658680022   0.626616165968538   1.0000000
N2   N   0.777985386021022   0.889002401196366   0.624982370232516   1.0000000
N2   N   0.944632319779051   0.388989641637102   0.625129904547873   1.0000000
N2   N   0.111285300823969   0.388995431440443   0.124659867068400   1.0000000
N2   N   0.277974318318220   0.888978172255077   0.124040477168156   1.0000000
N2   N   0.611329684939702   0.889014377607313   0.125211842428846   1.0000000
N2   N   0.444496547428889   0.388914940381158   0.124160111263980   1.0000000
N2   N   0.944632319779051   0.888976011475125   0.124870095452198   1.0000000
N2   N   0.777967399621449   0.388971830773827   0.125095789870458   1.0000000
N2   N   0.277974823873536   0.555678075695912   0.625260521828923   1.0000000
N2   N   0.111285300823969   0.055623202716932   0.625340132931694   1.0000000
N2   N   0.611336279568190   0.555743954221472   0.626616165968538   1.0000000
N2   N   0.444656184027976   0.055634314202617   0.625065060657408   1.0000000
N2   N   0.944619085887484   0.555646435545952   0.625063080090769   1.0000000
N2   N   0.111291931503706   0.555658909132514   0.124389877978389   1.0000000
N2   N   0.777989070851704   0.055661202092535   0.625203390956572   1.0000000
N2   N   0.277974823873536   0.055630081511031   0.124739478171152   1.0000000
N2   N   0.444646356257992   0.555687199633514   0.124762560314482   1.0000000
N2   N   0.777940853750972   0.555637093542287   0.124916921759419   1.0000000
N2   N   0.611329684939702   0.055648640665601   0.125211842428846   1.0000000
N2   N   0.444646356257992   0.555687199633514   0.625237439685592   1.0000000
N2   N   0.944636872975461   0.055648232752724   0.124462477567204   1.0000000
N2   N   0.277974318318220   0.722329479396522   0.625959522831904   1.0000000
N2   N   0.111285446669608   0.222309390001482   0.625372099039501   1.0000000
N2   N   0.444646356257992   0.222292489957929   0.625237439685592   1.0000000
N2   N   0.611314904704907   0.722360551292008   0.624913772354024   1.0000000
N2   N   0.944619085887484   0.722305983674816   0.625063080090769   1.0000000
N2   N   0.777985386021022   0.222316318157994   0.624982370232516   1.0000000
N2   N   0.111291860257274   0.722312596795279   0.124074285809328   1.0000000
N2   N   0.444656184027976   0.722355203158660   0.124934939342598   1.0000000
N2   N   0.277910397941016   0.222264267713816   0.124708243811516   1.0000000
N2   N   0.777967399621449   0.722328902180833   0.125095789870458   1.0000000
N2   N   0.611314904704907   0.222287686746157   0.125086227645979   1.0000000
N2   N   0.944636872975461   0.222321973556244   0.124462477567203   1.0000000
N2   N   0.111285300823969   0.388995431440443   0.625340132931694   1.0000000
N2   N   0.277974318318219   0.888978172255077   0.625959522831904   1.0000000
N2   N   0.611329684939702   0.889014377607313   0.624788157571208   1.0000000
N2   N   0.444496547428889   0.388914940381158   0.625839888735954   1.0000000
N2   N   0.944632319779051   0.888976011475125   0.625129904547873   1.0000000
N2   N   0.111291931503706   0.888966355704811   0.124389877978390   1.0000000
N2   N   0.777967399621449   0.388971830773827   0.624904210129486   1.0000000
N2   N   0.444655950656641   0.888994641994961   0.124637319533212   1.0000000
N2   N   0.277910397941016   0.388979463560603   0.124708243811516   1.0000000
N2   N   0.277974823873540   0.555678075695912   0.124739478171152   1.0000000
N2   N   0.611336279568190   0.388925658680022   0.123383834031458   1.0000000
N2   N   0.777985386021022   0.889002401196366   0.125017629767445   1.0000000
N2   N   0.944632319779051   0.388989641637102   0.124870095452198   1.0000000
N2   N   0.111291931503706   0.555658909132514   0.625610122021660   1.0000000
N2   N   0.277974823873536   0.055630081511031   0.625260521828923   1.0000000
N2   N   0.777940853750972   0.555637093542287   0.625083078240642   1.0000000
N2   N   0.611329684939702   0.055648640665601   0.624788157571208   1.0000000
N2   N   0.944636872975461   0.055648232752723   0.625537522432759   1.0000000
N2   N   0.058277928675149   0.112621128446187   0.375000000000000   1.0000000
N2   N   0.555820278415209   0.621142581896235   0.375000000000000   1.0000000
N2   N   0.387579160276888   0.103590414175145   0.375000000000000   1.0000000
N2   N   0.886889029548792   0.610111181441112   0.375000000000000   1.0000000
N2   N   0.724377539789539   0.111191829866956   0.375000000000000   1.0000000
N2   N   0.055376582860469   0.777689975556929   0.875000000000000   1.0000000
N2   N   0.388730898021452   0.777697253004765   0.875000000000000   1.0000000
N2   N   0.222064369771416   0.277698851552397   0.875000000000000   1.0000000
N2   N   0.722046199035228   0.777682746551686   0.875000000000000   1.0000000
N2   N   0.555386075079140   0.277694596004509   0.875000000000000   1.0000000
N2   N   0.888711406043029   0.277693790811066   0.875000000000000   1.0000000
N2   N   0.220591836402145   0.776962584867801   0.375000000000000   1.0000000
N2   N   0.058277928675148   0.278990133562337   0.375000000000000   1.0000000
N2   N   0.388080526801792   0.265415260296660   0.375000000000000   1.0000000
N2   N   0.556216946259756   0.782589061529014   0.375000000000000   1.0000000
N2   N   0.889504681651836   0.778867137571754   0.375000000000000   1.0000000
N2   N   0.724135074146080   0.276160585017704   0.375000000000000   1.0000000
N2   N   0.055378987468869   0.944356619958735   0.875000000000000   1.0000000
N2   N   0.388730898021452   0.944366978349991   0.875000000000000   1.0000000
N2   N   0.222058877578379   0.444361499262593   0.875000000000000   1.0000000
N2   N   0.555386867364732   0.444360100349027   0.875000000000000   1.0000000
N2   N   0.722046822790974   0.944353176651706   0.875000000000000   1.0000000
N2   N   0.888709649625587   0.444357601127873   0.875000000000000   1.0000000
N2   N   0.055897631072875   0.444972855510662   0.375000000000000   1.0000000
N2   N   0.220734519354078   0.941957346937119   0.375000000000000   1.0000000
N2   N   0.556296675743880   0.944815004538631   0.375000000000000   1.0000000
N2   N   0.388080526801792   0.455998599838471   0.375000000000000   1.0000000
N2   N   0.891137929783549   0.946400515507057   0.375000000000000   1.0000000
N2   N   0.722901023884081   0.442507567656136   0.375000000000000   1.0000000
N2   N   0.222054136790768   0.611023607936436   0.875000000000000   1.0000000
N2   N   0.055385630188643   0.111025109550430   0.875000000000000   1.0000000
N2   N   0.555386075079140   0.611024812408064   0.875000000000000   1.0000000
N2   N   0.388729181371905   0.111033415378235   0.875000000000000   1.0000000
N2   N   0.888710973663651   0.611022153498496   0.875000000000000   1.0000000
N2   N   0.054015200960015   0.610706032414321   0.375000000000000   1.0000000
N2   N   0.722046822790974   0.111026979472565   0.875000000000000   1.0000000
N2   N   0.222260474953237   0.109057548426331   0.375000000000000   1.0000000
N2   N   0.387579160276888   0.617322079435184   0.375000000000000   1.0000000
N2   N   0.722901023884081   0.613726789561262   0.375000000000000   1.0000000
N2   N   0.556216946259756   0.106961218064283   0.375000000000000   1.0000000
N2   N   0.388729181371905   0.611029099327105   0.875000000000000   1.0000000
N2   N   0.891603689781716   0.112468511557503   0.375000000000000   1.0000000
N2   N   0.222054067190989   0.777693700262130   0.875000000000000   1.0000000
N2   N   0.055385630188642   0.277693853971504   0.875000000000000   1.0000000
N2   N   0.388732487634318   0.277697728506077   0.875000000000000   1.0000000
N2   N   0.555389634613483   0.777691037030324   0.875000000000000   1.0000000
N2   N   0.888709649625587   0.777685381831128   0.875000000000000   1.0000000
N2   N   0.722046199035228   0.277696785816916   0.875000000000000   1.0000000
N2   N   0.054015200960011   0.776642501878849   0.375000000000000   1.0000000
N2   N   0.387987176146721   0.779435819212341   0.375000000000000   1.0000000
N2   N   0.226388680284944   0.279861006809140   0.375000000000000   1.0000000
N2   N   0.724135074146080   0.781307822461667   0.375000000000000   1.0000000
N2   N   0.555820278415209   0.268011029852384   0.375000000000000   1.0000000
N2   N   0.891137929783549   0.278070747609577   0.375000000000000   1.0000000
N2   N   0.055378987468869   0.444355700843415   0.875000000000000   1.0000000
N2   N   0.222054136790768   0.944363862187691   0.875000000000000   1.0000000
N2   N   0.555391435380433   0.944362384356963   0.875000000000000   1.0000000
N2   N   0.388732487634318   0.444368092461564   0.875000000000000   1.0000000
N2   N   0.888711406043029   0.944350948565405   0.875000000000000   1.0000000
N2   N   0.055897631072875   0.944258108895592   0.375000000000000   1.0000000
N2   N   0.722051112855453   0.444362835123171   0.875000000000000   1.0000000
N2   N   0.387987176146721   0.941884690267821   0.375000000000000   1.0000000
N2   N   0.222260474953237   0.446536259860249   0.375000000000000   1.0000000
N2   N   0.220734519354075   0.612110505750197   0.375000000000000   1.0000000
N2   N   0.724377539789539   0.946519043255919   0.375000000000000   1.0000000
N2   N   0.889504681651836   0.443970877413592   0.375000000000000   1.0000000
N2   N   0.055376582860469   0.611019940636810   0.875000000000000   1.0000000
N2   N   0.222058877578379   0.111030711649156   0.875000000000000   1.0000000
N2   N   0.722051112855452   0.611021611065461   0.875000000000000   1.0000000
N2   N   0.555389634613483   0.111031930916601   0.875000000000000   1.0000000
N2   N   0.888712868467999   0.111023100900625   0.875000000000000   1.0000000
B2   B   0.112036133470664   0.055310935918639   0.375000000000000   1.0000000
B2   B   0.614946524285526   0.571887869245817   0.375000000000000   1.0000000
B2   B   0.444721573265889   0.051307672697472   0.375000000000000   1.0000000
B2   B   0.943266262821315   0.555006424927732   0.375000000000000   1.0000000
B2   B   0.780664981236478   0.056999157284887   0.375000000000000   1.0000000
B2   B   0.110938784620648   0.722136058976960   0.875000000000000   1.0000000
B2   B   0.444277442178575   0.722131027507416   0.875000000000000   1.0000000
B2   B   0.277620315828962   0.222147254052548   0.875000000000000   1.0000000
B2   B   0.777593910693507   0.722122399503013   0.875000000000000   1.0000000
B2   B   0.610930965883221   0.222142189527303   0.875000000000000   1.0000000
B2   B   0.944276769407839   0.222138392156513   0.875000000000000   1.0000000
B2   B   0.276786850085549   0.722740490414561   0.375000000000000   1.0000000
B2   B   0.115059576183111   0.224196454758215   0.375000000000000   1.0000000
B2   B   0.442985172992386   0.212279285872592   0.375000000000000   1.0000000
B2   B   0.613218322866643   0.730207614509994   0.375000000000000   1.0000000
B2   B   0.943266262821315   0.721593171226829   0.375000000000000   1.0000000
B2   B   0.780411607824928   0.221852914180410   0.375000000000000   1.0000000
B2   B   0.110941635684393   0.888810303762838   0.875000000000000   1.0000000
B2   B   0.444280590073029   0.888806961703124   0.875000000000000   1.0000000
B2   B   0.277620315828962   0.388806395109755   0.875000000000000   1.0000000
B2   B   0.610927166389290   0.388806098011926   0.875000000000000   1.0000000
B2   B   0.777599603439293   0.888794853681214   0.875000000000000   1.0000000
B2   B   0.944270023733909   0.388801228310758   0.875000000000000   1.0000000
B2   B   0.112036133470664   0.390058530885377   0.375000000000000   1.0000000
B2   B   0.276786850085552   0.887379693004248   0.375000000000000   1.0000000
B2   B   0.613184749692464   0.892045695977926   0.375000000000000   1.0000000
B2   B   0.945499651695367   0.889927705266598   0.375000000000000   1.0000000
B2   B   0.779346160461466   0.387353259265501   0.375000000000000   1.0000000
B2   B   0.277615719017309   0.555465349241564   0.875000000000000   1.0000000
B2   B   0.110949349325585   0.055479699349580   0.875000000000000   1.0000000
B2   B   0.610927166389290   0.555454401710703   0.875000000000000   1.0000000
B2   B   0.444277442178575   0.055479748004475   0.875000000000000   1.0000000
B2   B   0.944265480021468   0.555465935513033   0.875000000000000   1.0000000
B2   B   0.110089005223070   0.555833372631946   0.375000000000000   1.0000000
B2   B   0.777602956791134   0.055468145062172   0.875000000000000   1.0000000
B2   B   0.276746762649060   0.052376773482629   0.375000000000000   1.0000000
B2   B   0.442985172992386   0.564039220452912   0.375000000000000   1.0000000
B2   B   0.775858901963035   0.554596117648098   0.375000000000000   1.0000000
B2   B   0.613184749692464   0.054472387047844   0.375000000000000   1.0000000
B2   B   0.444277348450409   0.555464654223599   0.875000000000000   1.0000000
B2   B   0.947421094231380   0.057462333677701   0.375000000000000   1.0000000
B2   B   0.277614460249388   0.722135428254664   0.875000000000000   1.0000000
B2   B   0.110955220791484   0.222144277062400   0.875000000000000   1.0000000
B2   B   0.444277348450409   0.222146027560062   0.875000000000000   1.0000000
B2   B   0.610930965883221   0.722122109689161   0.875000000000000   1.0000000
B2   B   0.944265480021468   0.722132877841651   0.875000000000000   1.0000000
B2   B   0.777599603439293   0.222138083091433   0.875000000000000   1.0000000
B2   B   0.109696076473043   0.721514704903140   0.375000000000000   1.0000000
B2   B   0.444721573265889   0.726747233901726   0.375000000000000   1.0000000
B2   B   0.279667709579285   0.220636849044092   0.375000000000000   1.0000000
B2   B   0.779346160461466   0.725326234529470   0.375000000000000   1.0000000
B2   B   0.613218322866643   0.216344041689996   0.375000000000000   1.0000000
B2   B   0.947421094231380   0.223292093886917   0.375000000000000   1.0000000
B2   B   0.110949349325585   0.388802983309278   0.875000000000000   1.0000000
B2   B   0.277614460249388   0.888812365328151   0.875000000000000   1.0000000
B2   B   0.610937480251472   0.888798428039875   0.875000000000000   1.0000000
B2   B   0.444283561327548   0.388808447330372   0.875000000000000   1.0000000
B2   B   0.944270023733909   0.888802128756528   0.875000000000000   1.0000000
B2   B   0.110089005223070   0.887588965924425   0.375000000000000   1.0000000
B2   B   0.777593910693507   0.388804844523867   0.875000000000000   1.0000000
B2   B   0.444861062354658   0.889097197843926   0.375000000000000   1.0000000
B2   B   0.279667709579285   0.392364193868545   0.375000000000000   1.0000000
B2   B   0.276746762649060   0.557703322499725   0.375000000000000   1.0000000
B2   B   0.614946524285518   0.376391988373153   0.375000000000000   1.0000000
B2   B   0.780411607824928   0.891892026978059   0.375000000000000   1.0000000
B2   B   0.945499651695367   0.388905279762044   0.375000000000000   1.0000000
B2   B   0.110941635684393   0.555464665254852   0.875000000000000   1.0000000
B2   B   0.277615719017309   0.055483703109025   0.875000000000000   1.0000000
B2   B   0.777592331337762   0.555462832335495   0.875000000000000   1.0000000
B2   B   0.610937480251472   0.055472385544965   0.875000000000000   1.0000000
B2   B   0.944276769407839   0.055471710584666   0.875000000000000   1.0000000
B2   B   0.055764535726613   0.111218493645043   0.124601688370662   1.0000000
B2   B   0.555734649630157   0.611235530565032   0.124353809299632   1.0000000
B2   B   0.389073460090281   0.111176324302380   0.124919812408393   1.0000000
B2   B   0.889062476889405   0.611197905111365   0.124952615297676   1.0000000
B2   B   0.722435907014690   0.111202105089666   0.125015193604025   1.0000000
B2   B   0.055752488011068   0.777878373016195   0.625583657216421   1.0000000
B2   B   0.389084555099927   0.777884695266520   0.625506905724656   1.0000000
B2   B   0.222402598101637   0.277867965717501   0.625155908219383   1.0000000
B2   B   0.722418503283520   0.777910252344654   0.624965256829961   1.0000000
B2   B   0.555734649630157   0.277832452398466   0.625646190700336   1.0000000
B2   B   0.889103980111740   0.277870832222069   0.625233009305310   1.0000000
B2   B   0.222421149392751   0.777877241363029   0.123912509914593   1.0000000
B2   B   0.055764535726613   0.277879375414890   0.124601688370662   1.0000000
B2   B   0.388939348566212   0.277709898228408   0.124621831473798   1.0000000
B2   B   0.555753142802422   0.777911741978508   0.125119864280195   1.0000000
B2   B   0.889088513340298   0.777891750140209   0.124980242183830   1.0000000
B2   B   0.722418503283520   0.277841584272251   0.125034743170031   1.0000000
B2   B   0.055758621053216   0.944551365684480   0.625349368109895   1.0000000
B2   B   0.389084555099927   0.944533193166634   0.625506905724656   1.0000000
B2   B   0.222403040094819   0.444547407436321   0.625167632789684   1.0000000
B2   B   0.555808844901943   0.444571089117636   0.625708588039449   1.0000000
B2   B   0.722435907014690   0.944567135258390   0.624984806396018   1.0000000
B2   B   0.889088513340298   0.444530096533523   0.625019757816208   1.0000000
B2   B   0.055758621053219   0.444540588702200   0.124650631890035   1.0000000
B2   B   0.222419669438198   0.944543250488904   0.124355532175565   1.0000000
B2   B   0.555764561626720   0.944548947480192   0.125046601923241   1.0000000
B2   B   0.388939348566212   0.444562783671131   0.124621831473798   1.0000000
B2   B   0.889103980111779   0.944566481222774   0.124766990694570   1.0000000
B2   B   0.722381614293829   0.444501441770440   0.124362686269936   1.0000000
B2   B   0.222419669438198   0.611209752282566   0.625644467824425   1.0000000
B2   B   0.055764535726613   0.111218493645043   0.625398311629277   1.0000000
B2   B   0.555734649630157   0.611235530565032   0.625646190700336   1.0000000
B2   B   0.389073460090281   0.111176324302380   0.625080187591535   1.0000000
B2   B   0.889062476889405   0.611197905111365   0.625047384702446   1.0000000
B2   B   0.055752488011073   0.611207448328212   0.124416342783611   1.0000000
B2   B   0.722435907014690   0.111202105089666   0.624984806396018   1.0000000
B2   B   0.222403040094819   0.111188965991896   0.124832367210184   1.0000000
B2   B   0.389073460090281   0.611230469121264   0.124919812408393   1.0000000
B2   B   0.722381614293829   0.611213505856419   0.124362686269936   1.0000000
B2   B   0.555753142802422   0.111174734157274   0.125119864280195   1.0000000
B2   B   0.389073460090281   0.611230469121264   0.625080187591535   1.0000000
B2   B   0.889102524815162   0.111217929074278   0.124534276472750   1.0000000
B2   B   0.222421149392751   0.777877241363029   0.626087490085574   1.0000000
B2   B   0.055764535726613   0.277879375414890   0.625398311629277   1.0000000
B2   B   0.388939348566212   0.277709898228408   0.625378168526180   1.0000000
B2   B   0.555753142802422   0.777911741978508   0.624880135719709   1.0000000
B2   B   0.889088513340298   0.777891750140209   0.625019757816208   1.0000000
B2   B   0.722418503283520   0.277841584272251   0.624965256829961   1.0000000
B2   B   0.055752488011073   0.777878373016195   0.124416342783611   1.0000000
B2   B   0.389084555099927   0.777884695266520   0.124493094275289   1.0000000
B2   B   0.222402598101637   0.277867965717501   0.124844091780659   1.0000000
B2   B   0.722418503283520   0.777910252344654   0.125034743170031   1.0000000
B2   B   0.555734649630157   0.277832452398466   0.124353809299632   1.0000000
B2   B   0.889103980111779   0.277870832222069   0.124766990694570   1.0000000
B2   B   0.055758621053219   0.444540588702200   0.625349368109895   1.0000000
B2   B   0.222419669438198   0.944543250488904   0.625644467824425   1.0000000
B2   B   0.555764561626720   0.944548947480192   0.624953398076752   1.0000000
B2   B   0.388939348566212   0.444562783671131   0.625378168526180   1.0000000
B2   B   0.889103980111779   0.944566481222774   0.625233009305310   1.0000000
B2   B   0.055758621053216   0.944551365684480   0.124650631890035   1.0000000
B2   B   0.722381614293899   0.444501441770434   0.625637313729987   1.0000000
B2   B   0.389084555099927   0.944533193166634   0.124493094275289   1.0000000
B2   B   0.222403040094819   0.444547407436321   0.124832367210184   1.0000000
B2   B   0.222419669438197   0.611209752282566   0.124355532175565   1.0000000
B2   B   0.555808844901943   0.444571089117636   0.124291411960671   1.0000000
B2   B   0.722435907014690   0.944567135258390   0.125015193604025   1.0000000
B2   B   0.889088513340298   0.444530096533523   0.124980242183815   1.0000000
B2   B   0.055752488011073   0.611207448328212   0.625583657216421   1.0000000
B2   B   0.222403040094819   0.111188965991896   0.625167632789684   1.0000000
B2   B   0.722381614293899   0.611213505856419   0.625637313729987   1.0000000
B2   B   0.555753142802422   0.111174734157274   0.624880135719709   1.0000000
B2   B   0.889102524815162   0.111217929074278   0.625465723527142   1.0000000


