data_1
_audit_creation_method   'vasp2cif'
_cell_length_a    17.52789999999977
_cell_length_b    17.52789999999977
_cell_length_c    15.0
_cell_angle_alpha    90.0
_cell_angle_beta    90.0
_cell_angle_gamma    119.99999999999916

_symmetry_space_group_name_H-M    'P 1'
loop_
_atom_site_label
_atom_site_type_symbol
_atom_site_fract_x
_atom_site_fract_y
_atom_site_fract_z
_atom_site_occupancy
Al2   Al   0.541724069473155   0.458277332443838   0.110623586616597   1.0000000
As2   As   0.473925263905407   0.526076757291590   0.110665140986249   1.0000000
B2   B   0.906260044568635   0.954602989669680   0.111004013441645   1.0000000
B2   B   0.904038001111520   0.095964020084468   0.110987081913824   1.0000000
B2   B   0.903600492866052   0.238329357338481   0.111019801962827   1.0000000
B2   B   0.904668894656868   0.381312960757934   0.110936219936997   1.0000000
B2   B   0.908438824036237   0.525139334565992   0.110984268347458   1.0000000
B2   B   0.909609087866036   0.669496795188915   0.111116398842447   1.0000000
B2   B   0.910230270647773   0.814149426768628   0.111032696395366   1.0000000
B2   B   0.047922282152182   0.952079739043832   0.110961117428104   1.0000000
B2   B   0.045399031526323   0.093741976627352   0.111004013441645   1.0000000
B2   B   0.044677710144995   0.236983418060578   0.111001589083063   1.0000000
B2   B   0.045377878908553   0.380697015296158   0.110974167906143   1.0000000
B2   B   0.047515249470696   0.524347349056907   0.110946662535578   1.0000000
B2   B   0.049449401941232   0.667501422448019   0.110998336854627   1.0000000
B2   B   0.049558186405501   0.810204814379786   0.111024243700522   1.0000000
B2   B   0.189797206816211   0.950443834790501   0.111024243700522   1.0000000
B2   B   0.185852594427369   0.089771750548234   0.111032696395366   1.0000000
B2   B   0.184071536157799   0.232764454466631   0.111078427160002   1.0000000
B2   B   0.185079605850602   0.378870494065929   0.111028842815274   1.0000000
B2   B   0.186759836869325   0.524035100331794   0.111049350343604   1.0000000
B2   B   0.190520913673660   0.667059632733856   0.111023572723051   1.0000000
B2   B   0.190848691034051   0.809153330161963   0.111005624659855   1.0000000
B2   B   0.332500598748989   0.950552619254773   0.110998336854627   1.0000000
B2   B   0.330505226008090   0.090392933329955   0.111116398842447   1.0000000
B2   B   0.322279676310788   0.225636106383456   0.111244555366909   1.0000000
B2   B   0.321672994988054   0.371550611607107   0.111091583688327   1.0000000
B2   B   0.324101934762561   0.523150708108136   0.111020010037355   1.0000000
B2   B   0.332508756035383   0.667493265161617   0.111063676863511   1.0000000
B2   B   0.332942388463142   0.809481107522336   0.111023572723051   1.0000000
B2   B   0.475654672140084   0.952486771725304   0.110946662535578   1.0000000
B2   B   0.474862686630999   0.091563197159751   0.110984268347458   1.0000000
B2   B   0.472835212239354   0.228268622141274   0.111176741038588   1.0000000
B2   B   0.453853205160052   0.348922424676928   0.110864658187287   1.0000000
B2   B   0.476851313088869   0.675900086434437   0.111020010037355   1.0000000
B2   B   0.475966920865205   0.813242184326680   0.111049350343604   1.0000000
B2   B   0.619305005899845   0.954624142287450   0.110974167906143   1.0000000
B2   B   0.618689060438077   0.095333126539119   0.110936219936997   1.0000000
B2   B   0.618487434102944   0.236392298813670   0.110977040625227   1.0000000
B2   B   0.620801576967853   0.379200444228154   0.111433863879873   1.0000000
B2   B   0.651079596519073   0.546148816036944   0.110864658187287   1.0000000
B2   B   0.628451409588885   0.678329026208936   0.111091583688327   1.0000000
B2   B   0.621131527130074   0.814922415345397   0.111028842815274   1.0000000
B2   B   0.763018603135437   0.955324311051021   0.111001589083063   1.0000000
B2   B   0.761672663857532   0.096401528329942   0.111019801962827   1.0000000
B2   B   0.761653817400022   0.238348203795985   0.111021367451700   1.0000000
B2   B   0.763609722382341   0.381514587093059   0.110977040625227   1.0000000
B2   B   0.771733399054731   0.527166808957642   0.111176741038588   1.0000000
B2   B   0.774365914812550   0.677722344886213   0.111244555366909   1.0000000
B2   B   0.767237566729370   0.815930485038208   0.111078427160002   1.0000000
N2   N   0.954449879648777   0.907491439803451   0.110948493850488   1.0000000
N2   N   0.951548972004648   0.048452429913351   0.110972948943681   1.0000000
N2   N   0.950505951033845   0.190483218978564   0.110984123430416   1.0000000
N2   N   0.950943921029144   0.333174438430454   0.110961610199342   1.0000000
N2   N   0.953345172647421   0.476340119169567   0.110891514332950   1.0000000
N2   N   0.955056286876081   0.620186795194894   0.110999298979645   1.0000000
N2   N   0.955492198331924   0.764170010895091   0.111028348795491   1.0000000
N2   N   0.095512175748962   0.904489226169037   0.110983976853906   1.0000000
N2   N   0.092509962114533   0.045551522269233   0.110948493850488   1.0000000
N2   N   0.090747849158531   0.187953584953531   0.111008855449304   1.0000000
N2   N   0.091320926880492   0.331926423319440   0.110976871597130   1.0000000
N2   N   0.092882816562801   0.475815326319292   0.110961001331477   1.0000000
N2   N   0.095803482494104   0.619318983282961   0.110978945809928   1.0000000
N2   N   0.096367725741259   0.762179478775146   0.110997915204240   1.0000000
N2   N   0.237821923142865   0.903633676176736   0.110997915204240   1.0000000
N2   N   0.235831391022914   0.044509203586086   0.111028348795491   1.0000000
N2   N   0.229712552466206   0.182817588219001   0.111122277089873   1.0000000
N2   N   0.229165983682066   0.327466059365651   0.111047843775385   1.0000000
N2   N   0.231070676689747   0.474751372520726   0.111065058416671   1.0000000
N2   N   0.237311581856181   0.619238688250636   0.111025970943167   1.0000000
N2   N   0.238180709821753   0.761820692096254   0.110995292137600   1.0000000
N2   N   0.380682418635031   0.904197919423900   0.110978945809928   1.0000000
N2   N   0.379814606723096   0.044945115041926   0.110999298979645   1.0000000
N2   N   0.376952450390916   0.184395533582897   0.111211164558258   1.0000000
N2   N   0.364418515713108   0.318038961357632   0.111131110286900   1.0000000
N2   N   0.360367814025252   0.466912537777374   0.110902905724463   1.0000000
N2   N   0.380174775150463   0.619826626767538   0.111020844139871   1.0000000
N2   N   0.380762713667364   0.762689820061825   0.111025970943167   1.0000000
N2   N   0.524186075597694   0.907118585355198   0.110961001331477   1.0000000
N2   N   0.523661282747433   0.046656229270589   0.110891514332950   1.0000000
N2   N   0.523106086436270   0.185609926347439   0.111020315287404   1.0000000
N2   N   0.520472427015383   0.322130514965994   0.111270885195606   1.0000000
N2   N   0.533088864139622   0.639633587892753   0.110902905724463   1.0000000
N2   N   0.525250029396261   0.768930725228259   0.111065058416671   1.0000000
N2   N   0.668074978597563   0.908680475037516   0.110976871597130   1.0000000
N2   N   0.666826963486543   0.049057480888859   0.110961610199342   1.0000000
N2   N   0.666576172128897   0.190393496705111   0.110950088429964   1.0000000
N2   N   0.667363989505719   0.332637412411282   0.111042644110955   1.0000000
N2   N   0.677870886951009   0.479528974901610   0.111270885195606   1.0000000
N2   N   0.681962440559365   0.635582886204900   0.111131110286900   1.0000000
N2   N   0.672535342551346   0.770835418235927   0.111047843775385   1.0000000
N2   N   0.812047816964457   0.909253552759459   0.111008855449304   1.0000000
N2   N   0.809518182939440   0.049495450884165   0.110984123430416   1.0000000
N2   N   0.808899873228481   0.191101528689519   0.111027274653469   1.0000000
N2   N   0.809607905212888   0.333425229788100   0.110950088429964   1.0000000
N2   N   0.814391475570559   0.476895315480720   0.111020315287404   1.0000000
N2   N   0.815605868335117   0.623048951527083   0.111211164558258   1.0000000
N2   N   0.817183813698999   0.770288849451796   0.111122277089873   1.0000000


