data_1
_audit_creation_method   'vasp2cif'
_cell_length_a    14.93631414619966
_cell_length_b    14.936314146199727
_cell_length_c    13.341276283792837
_cell_angle_alpha    90.0
_cell_angle_beta    90.0
_cell_angle_gamma    119.99999999999984

_symmetry_space_group_name_H-M    'P 1'
loop_
_atom_site_label
_atom_site_type_symbol
_atom_site_fract_x
_atom_site_fract_y
_atom_site_fract_z
_atom_site_occupancy
C2   C   0.439895009508323   0.386614171420826   0.375000000000000   1.0000000
C2   C   0.550285036275436   0.441809184804383   0.375000000000000   1.0000000
N2   N   0.111116118690835   0.055547704955242   0.125140492446027   1.0000000
N2   N   0.611112973146081   0.555555229153153   0.125302457294365   1.0000000
N2   N   0.444432275106082   0.055555855391160   0.125158069673422   1.0000000
N2   N   0.944448230835934   0.555563315099714   0.125117618721097   1.0000000
N2   N   0.777781093674430   0.055557213503883   0.125098353328514   1.0000000
N2   N   0.111108906686760   0.722221120010044   0.624902531727513   1.0000000
N2   N   0.444432275106082   0.722209753048257   0.624841930326578   1.0000000
N2   N   0.277791449589986   0.222227561963731   0.624626654984992   1.0000000
N2   N   0.777787431289760   0.722219480053989   0.624865675388783   1.0000000
N2   N   0.611105956837900   0.222227282135807   0.624843060863493   1.0000000
N2   N   0.944458361924723   0.222235237644993   0.624891005928706   1.0000000
N2   N   0.277769663676710   0.722220870698375   0.125108818102512   1.0000000
N2   N   0.111128174740816   0.222230754037072   0.125181698635106   1.0000000
N2   N   0.444441812812411   0.222243661289193   0.125441339468403   1.0000000
N2   N   0.611105956837900   0.722212008035421   0.125156939136508   1.0000000
N2   N   0.944448230835934   0.722218249069555   0.125117618721097   1.0000000
N2   N   0.777781357532356   0.222233098375910   0.125106065431986   1.0000000
N2   N   0.111110099703545   0.888878761729409   0.624885185985931   1.0000000
N2   N   0.444431067524758   0.888882200429044   0.624891430990998   1.0000000
N2   N   0.277791449589986   0.388897220959584   0.624626654984992   1.0000000
N2   N   0.611112973146081   0.388891077326257   0.624697542705635   1.0000000
N2   N   0.777781357532356   0.888881592489775   0.624893934568015   1.0000000
N2   N   0.944453878486909   0.388902440594483   0.624899805710147   1.0000000
N2   N   0.111116118690835   0.388901747068922   0.125140492446027   1.0000000
N2   N   0.277769663676710   0.888882126311663   0.125108818102512   1.0000000
N2   N   0.611101226147380   0.888880218597128   0.125105844964342   1.0000000
N2   N   0.444440724970464   0.388887029151896   0.125394983501819   1.0000000
N2   N   0.944453878486909   0.888884771225754   0.125100194289853   1.0000000
N2   N   0.777787431289760   0.388901284569100   0.125134324611217   1.0000000
N2   N   0.277776209546984   0.555558645232463   0.624805669257771   1.0000000
N2   N   0.111116118690835   0.055547704955242   0.624859507553973   1.0000000
N2   N   0.611112973146081   0.555555229153153   0.624697542705635   1.0000000
N2   N   0.444432275106082   0.055555855391160   0.624841930326578   1.0000000
N2   N   0.944448230835934   0.555563315099714   0.624882381278903   1.0000000
N2   N   0.111110099703545   0.555564671307465   0.125114814014069   1.0000000
N2   N   0.777781093674430   0.055557213503883   0.624901646671486   1.0000000
N2   N   0.277776209546984   0.055550897647856   0.125194330742229   1.0000000
N2   N   0.444441812812411   0.555531484856553   0.125441339468403   1.0000000
N2   N   0.777774918288594   0.555554125810965   0.125228436309082   1.0000000
N2   N   0.611101226147380   0.055554340883580   0.125105844964342   1.0000000
N2   N   0.444441812812411   0.555531484856553   0.624558660531596   1.0000000
N2   N   0.944458361924723   0.055556457613066   0.125108994071294   1.0000000
N2   N   0.277769663676710   0.722220870698375   0.624891181897488   1.0000000
N2   N   0.111128174740816   0.222230754037072   0.624818301364894   1.0000000
N2   N   0.444441812812411   0.222243661289193   0.624558660531596   1.0000000
N2   N   0.611105956837900   0.722212008035421   0.624843060863493   1.0000000
N2   N   0.944448230835934   0.722218249069555   0.624882381278903   1.0000000
N2   N   0.777781357532356   0.222233098375910   0.624893934568015   1.0000000
N2   N   0.111108906686760   0.722221120010044   0.125097468272487   1.0000000
N2   N   0.444432275106082   0.722209753048257   0.125158069673422   1.0000000
N2   N   0.277791449589986   0.222227561963731   0.125373345015009   1.0000000
N2   N   0.777787431289760   0.722219480053989   0.125134324611217   1.0000000
N2   N   0.611105956837900   0.222227282135807   0.125156939136508   1.0000000
N2   N   0.944458361924723   0.222235237644993   0.125108994071294   1.0000000
N2   N   0.111116118690835   0.388901747068922   0.624859507553973   1.0000000
N2   N   0.277769663676710   0.888882126311663   0.624891181897488   1.0000000
N2   N   0.611101226147380   0.888880218597128   0.624894155035658   1.0000000
N2   N   0.444440724970464   0.388887029151896   0.624605016498181   1.0000000
N2   N   0.944453878486909   0.888884771225754   0.624899805710147   1.0000000
N2   N   0.111110099703545   0.888878761729409   0.125114814014069   1.0000000
N2   N   0.777787431289760   0.388901284569100   0.624865675388783   1.0000000
N2   N   0.444431067524758   0.888882200429044   0.125108569009002   1.0000000
N2   N   0.277791449589986   0.388897220959584   0.125373345015009   1.0000000
N2   N   0.277776209546984   0.555558645232463   0.125194330742229   1.0000000
N2   N   0.611112973146081   0.388891077326257   0.125302457294365   1.0000000
N2   N   0.777781357532356   0.888881592489775   0.125106065431986   1.0000000
N2   N   0.944453878486909   0.388902440594483   0.125100194289853   1.0000000
N2   N   0.111110099703545   0.555564671307465   0.624885185985931   1.0000000
N2   N   0.277776209546984   0.055550897647856   0.624805669257771   1.0000000
N2   N   0.777774918288594   0.555554125810965   0.624771563690918   1.0000000
N2   N   0.611101226147380   0.055554340883580   0.624894155035658   1.0000000
N2   N   0.944458361924723   0.055556457613066   0.624891005928706   1.0000000
N2   N   0.055437599283314   0.111057929112657   0.375000000000000   1.0000000
N2   N   0.555997829612157   0.613418350169970   0.375000000000000   1.0000000
N2   N   0.389194211211611   0.112817597071141   0.375000000000000   1.0000000
N2   N   0.888386120881691   0.610859727107517   0.375000000000000   1.0000000
N2   N   0.722293923015097   0.110965763779385   0.375000000000000   1.0000000
N2   N   0.055552911823856   0.777779140631954   0.875000000000000   1.0000000
N2   N   0.388895515683628   0.777779752147743   0.875000000000000   1.0000000
N2   N   0.222222216845374   0.277777775089355   0.875000000000000   1.0000000
N2   N   0.722219992705152   0.777778813786318   0.875000000000000   1.0000000
N2   N   0.555553403822527   0.277777621770223   0.875000000000000   1.0000000
N2   N   0.888888698712420   0.277775092424585   0.875000000000000   1.0000000
N2   N   0.222379846658869   0.777856589996103   0.375000000000000   1.0000000
N2   N   0.055437599283314   0.277713003503993   0.375000000000000   1.0000000
N2   N   0.389285286495950   0.281902131850839   0.375000000000000   1.0000000
N2   N   0.555498237200556   0.778493110372876   0.375000000000000   1.0000000
N2   N   0.889261868430302   0.778270755682736   0.375000000000000   1.0000000
N2   N   0.722536426877886   0.277371386015118   0.375000000000000   1.0000000
N2   N   0.055553909126752   0.944447749533637   0.875000000000000   1.0000000
N2   N   0.388895515683628   0.944449096869221   0.875000000000000   1.0000000
N2   N   0.222223138575431   0.444440362153397   0.875000000000000   1.0000000
N2   N   0.555551371419422   0.444442352376376   0.875000000000000   1.0000000
N2   N   0.722221168437894   0.944445027274285   0.875000000000000   1.0000000
N2   N   0.888886321751848   0.444439621605679   0.875000000000000   1.0000000
N2   N   0.055960929100331   0.444378888361862   0.375000000000000   1.0000000
N2   N   0.222573692811704   0.945074735060396   0.375000000000000   1.0000000
N2   N   0.555428909622785   0.944381121478057   0.375000000000000   1.0000000
N2   N   0.389285286495950   0.440716487978447   0.375000000000000   1.0000000
N2   N   0.889085305377848   0.944690448570792   0.375000000000000   1.0000000
N2   N   0.722233689308212   0.443621627726028   0.375000000000000   1.0000000
N2   N   0.222224361178767   0.611107517040575   0.875000000000000   1.0000000
N2   N   0.055553969609844   0.111111747769217   0.875000000000000   1.0000000
N2   N   0.555553403822527   0.611109115385639   0.875000000000000   1.0000000
N2   N   0.388894080679207   0.111118216136104   0.875000000000000   1.0000000
N2   N   0.888882864961604   0.611108099147473   0.875000000000000   1.0000000
N2   N   0.055632492589663   0.611066407277155   0.375000000000000   1.0000000
N2   N   0.722221168437894   0.111109474496944   0.875000000000000   1.0000000
N2   N   0.222776235250824   0.112071700056243   0.375000000000000   1.0000000
N2   N   0.389194211211611   0.609709947473813   0.375000000000000   1.0000000
N2   N   0.722233689308212   0.611945394915519   0.375000000000000   1.0000000
N2   N   0.555498237200556   0.110338460161015   0.375000000000000   1.0000000
N2   N   0.388894080679207   0.611109197876446   0.875000000000000   1.0000000
N2   N   0.888954946336493   0.111144139834918   0.375000000000000   1.0000000
N2   N   0.222224943416255   0.777779138374795   0.875000000000000   1.0000000
N2   N   0.055553969609844   0.277775555173963   0.875000000000000   1.0000000
N2   N   0.388891272232182   0.277781086428623   0.875000000000000   1.0000000
N2   N   0.555557271025791   0.777779588845686   0.875000000000000   1.0000000
N2   N   0.888886321751848   0.777780033479505   0.875000000000000   1.0000000
N2   N   0.722219992705152   0.277774512252170   0.875000000000000   1.0000000
N2   N   0.055632492589663   0.777899418645844   0.375000000000000   1.0000000
N2   N   0.388924388751184   0.777435380385817   0.375000000000000   1.0000000
N2   N   0.221352482419570   0.277342907876453   0.375000000000000   1.0000000
N2   N   0.722536426877886   0.778498374196103   0.375000000000000   1.0000000
N2   N   0.555997829612157   0.275912812775522   0.375000000000000   1.0000000
N2   N   0.889085305377848   0.277728190140392   0.375000000000000   1.0000000
N2   N   0.055553909126752   0.444439492926444   0.875000000000000   1.0000000
N2   N   0.222224361178767   0.944450177471528   0.875000000000000   1.0000000
N2   N   0.555557537576779   0.944445435455054   0.875000000000000   1.0000000
N2   N   0.388891272232182   0.444443519136895   0.875000000000000   1.0000000
N2   N   0.888888698712420   0.944446939621171   0.875000000000000   1.0000000
N2   N   0.055960929100331   0.944915374071797   0.375000000000000   1.0000000
N2   N   0.722215656429069   0.444440506369560   0.875000000000000   1.0000000
N2   N   0.388924388751184   0.944822341698703   0.375000000000000   1.0000000
N2   N   0.222776235250824   0.444037868527917   0.375000000000000   1.0000000
N2   N   0.222573692811704   0.610832291084643   0.375000000000000   1.0000000
N2   N   0.722293923015097   0.944661492569047   0.375000000000000   1.0000000
N2   N   0.889261868430302   0.444324446080901   0.375000000000000   1.0000000
N2   N   0.055552911823856   0.611107104525237   0.875000000000000   1.0000000
N2   N   0.222223138575431   0.111116109755370   0.875000000000000   1.0000000
N2   N   0.722215656429069   0.611108483392845   0.875000000000000   1.0000000
N2   N   0.555557271025791   0.111111015513441   0.875000000000000   1.0000000
N2   N   0.888888454295215   0.111110893814279   0.875000000000000   1.0000000
B2   B   0.110948902679057   0.055645642185739   0.375000000000000   1.0000000
B2   B   0.612260776501869   0.560182894507697   0.375000000000000   1.0000000
B2   B   0.444628143664374   0.055785425978289   0.375000000000000   1.0000000
B2   B   0.944502828692326   0.555467411870638   0.375000000000000   1.0000000
B2   B   0.777872733683349   0.055603033508342   0.375000000000000   1.0000000
B2   B   0.111108079743633   0.722220706538481   0.875000000000000   1.0000000
B2   B   0.444456885461856   0.722256201615117   0.875000000000000   1.0000000
B2   B   0.277742452073389   0.222191557563035   0.875000000000000   1.0000000
B2   B   0.777799307543359   0.722253623982739   0.875000000000000   1.0000000
B2   B   0.611134660103606   0.222199039256047   0.875000000000000   1.0000000
B2   B   0.944419191288436   0.222207568651907   0.875000000000000   1.0000000
B2   B   0.277845047481492   0.722182135267413   0.375000000000000   1.0000000
B2   B   0.109478506812887   0.221405920073108   0.375000000000000   1.0000000
B2   B   0.446010331733539   0.223012229682120   0.375000000000000   1.0000000
B2   B   0.611899403402601   0.724722108411260   0.375000000000000   1.0000000
B2   B   0.944502828692326   0.722368750155025   0.375000000000000   1.0000000
B2   B   0.778156338839589   0.221877820123658   0.375000000000000   1.0000000
B2   B   0.111098660689821   0.888877232457395   0.875000000000000   1.0000000
B2   B   0.444457155546662   0.888895244439995   0.875000000000000   1.0000000
B2   B   0.277742452073389   0.388884227843684   0.875000000000000   1.0000000
B2   B   0.611145370339021   0.388881607738783   0.875000000000000   1.0000000
B2   B   0.777785194595125   0.888910604524646   0.875000000000000   1.0000000
B2   B   0.944436502116493   0.388877290233099   0.875000000000000   1.0000000
B2   B   0.110948902679057   0.388636593826646   0.375000000000000   1.0000000
B2   B   0.277845047481492   0.888996245547408   0.375000000000000   1.0000000
B2   B   0.611289603367913   0.889529026888455   0.375000000000000   1.0000000
B2   B   0.944762363501762   0.889329154214445   0.375000000000000   1.0000000
B2   B   0.778538351198802   0.388440536715377   0.375000000000000   1.0000000
B2   B   0.277763652561148   0.555570631542762   0.875000000000000   1.0000000
B2   B   0.111076673449654   0.055530815369328   0.875000000000000   1.0000000
B2   B   0.611145370339021   0.555597095933567   0.875000000000000   1.0000000
B2   B   0.444456885461856   0.055534017180075   0.875000000000000   1.0000000
B2   B   0.944451865149329   0.555554157954063   0.875000000000000   1.0000000
B2   B   0.111207089094352   0.555493512387891   0.375000000000000   1.0000000
B2   B   0.777775202901761   0.055554268117548   0.875000000000000   1.0000000
B2   B   0.277772131869651   0.055790317087799   0.375000000000000   1.0000000
B2   B   0.446010331733539   0.556331435384755   0.375000000000000   1.0000000
B2   B   0.777552853511474   0.555443093422405   0.375000000000000   1.0000000
B2   B   0.611289603367913   0.055093909812787   0.375000000000000   1.0000000
B2   B   0.444453052588520   0.555592344096505   0.875000000000000   1.0000000
B2   B   0.944167270933073   0.055469106790406   0.375000000000000   1.0000000
B2   B   0.277778565236745   0.722232536877215   0.875000000000000   1.0000000
B2   B   0.111062022249051   0.222197677791190   0.875000000000000   1.0000000
B2   B   0.444453052588520   0.222194041825351   0.875000000000000   1.0000000
B2   B   0.611134660103606   0.722268954180887   0.875000000000000   1.0000000
B2   B   0.944451865149329   0.722231040528602   0.875000000000000   1.0000000
B2   B   0.777785194595125   0.222207923403807   0.875000000000000   1.0000000
B2   B   0.111177719878442   0.722255526605886   0.375000000000000   1.0000000
B2   B   0.444628143664374   0.722176051019420   0.375000000000000   1.0000000
B2   B   0.275662678957867   0.221918950276484   0.375000000000000   1.0000000
B2   B   0.778538351198802   0.723431147816752   0.375000000000000   1.0000000
B2   B   0.611899403402601   0.220510628324669   0.375000000000000   1.0000000
B2   B   0.944167270933073   0.222031497476003   0.375000000000000   1.0000000
B2   B   0.111076673449654   0.388879191413655   0.875000000000000   1.0000000
B2   B   0.277778565236745   0.888879361692859   0.875000000000000   1.0000000
B2   B   0.611125480072546   0.888911794313559   0.875000000000000   1.0000000
B2   B   0.444442577192605   0.388887955262967   0.875000000000000   1.0000000
B2   B   0.944436502116493   0.888892545216723   0.875000000000000   1.0000000
B2   B   0.111207089094352   0.889046910039790   0.375000000000000   1.0000000
B2   B   0.777799307543359   0.388879016893949   0.875000000000000   1.0000000
B2   B   0.444435662789273   0.888884498061301   0.375000000000000   1.0000000
B2   B   0.275662678957867   0.387077062014711   0.375000000000000   1.0000000
B2   B   0.277772131869651   0.555315148115188   0.375000000000000   1.0000000
B2   B   0.612260776501869   0.385411215327501   0.375000000000000   1.0000000
B2   B   0.778156338839589   0.889611852049260   0.375000000000000   1.0000000
B2   B   0.944762363501762   0.388766542620645   0.375000000000000   1.0000000
B2   B   0.111098660689821   0.555554761565753   0.875000000000000   1.0000000
B2   B   0.277763652561148   0.055526354351722   0.875000000000000   1.0000000
B2   B   0.777804375910066   0.555568854621700   0.875000000000000   1.0000000
B2   B   0.611125480072546   0.055547019092315   0.875000000000000   1.0000000
B2   B   0.944419191288436   0.055544955969865   0.875000000000000   1.0000000
B2   B   0.055482706104848   0.111035929363544   0.124862232294259   1.0000000
B2   B   0.555639379545768   0.611245402506887   0.124821043598972   1.0000000
B2   B   0.388836342673944   0.110958419246855   0.124857658338263   1.0000000
B2   B   0.888990262353795   0.611161797843569   0.124918208092402   1.0000000
B2   B   0.722233878787211   0.111104297344369   0.124911298494349   1.0000000
B2   B   0.055563887974768   0.777756741895483   0.625081421436724   1.0000000
B2   B   0.388849600932825   0.777806640633103   0.625104047104241   1.0000000
B2   B   0.222095721670345   0.277714527501841   0.625254658965895   1.0000000
B2   B   0.722292254410024   0.777844631679627   0.625127781286366   1.0000000
B2   B   0.555639379545768   0.277727310372217   0.625178956401028   1.0000000
B2   B   0.888895733029539   0.277796136778245   0.625092754084257   1.0000000
B2   B   0.222185972474346   0.777759652903841   0.124907205044499   1.0000000
B2   B   0.055482706104848   0.277780110074640   0.124862232294259   1.0000000
B2   B   0.388845068536023   0.277690066668710   0.124549744373516   1.0000000
B2   B   0.555567343746108   0.777846686455340   0.124873979701422   1.0000000
B2   B   0.888950724334505   0.777803394126225   0.124907311224569   1.0000000
B2   B   0.722292254410024   0.277780956063733   0.124872218713635   1.0000000
B2   B   0.055519620506909   0.944369619366490   0.625105275401091   1.0000000
B2   B   0.388849600932825   0.944376293633057   0.625104047104241   1.0000000
B2   B   0.222117919788217   0.444496832526817   0.625164339156954   1.0000000
B2   B   0.555673513057285   0.444503423195307   0.625362759175252   1.0000000
B2   B   0.722233878787211   0.944462914776177   0.625088701505651   1.0000000
B2   B   0.888950724334505   0.444480663541616   0.625092688775431   1.0000000
B2   B   0.055519620506909   0.444483334473747   0.124894724598909   1.0000000
B2   B   0.222163024821858   0.944330710138527   0.124889443127447   1.0000000
B2   B   0.555545725288111   0.944439529310720   0.124903251523862   1.0000000
B2   B   0.388845068536023   0.444488335200649   0.124549744373516   1.0000000
B2   B   0.888895733029539   0.944432929584630   0.124907245915743   1.0000000
B2   B   0.722377357608291   0.444494943073673   0.124885404941157   1.0000000
B2   B   0.222163024821858   0.611165648016666   0.625110556872553   1.0000000
B2   B   0.055482706104848   0.111035929363544   0.625137767705741   1.0000000
B2   B   0.555639379545768   0.611245402506887   0.625178956401028   1.0000000
B2   B   0.388836342673944   0.110958419246855   0.625142341661737   1.0000000
B2   B   0.888990262353795   0.611161797843569   0.625081791907598   1.0000000
B2   B   0.055563887974768   0.611140479412620   0.124918578563276   1.0000000
B2   B   0.722233878787211   0.111104297344369   0.625088701505651   1.0000000
B2   B   0.222117919788217   0.110954420594736   0.124835660843046   1.0000000
B2   B   0.388836342673944   0.611211256760432   0.124857658338263   1.0000000
B2   B   0.722377357608291   0.611215747867953   0.124885404941157   1.0000000
B2   B   0.555567343746108   0.111053990624103   0.124873979701422   1.0000000
B2   B   0.388836342673944   0.611211256760432   0.625142341661737   1.0000000
B2   B   0.888869265496603   0.111101299414973   0.124905742644476   1.0000000
B2   B   0.222185972474346   0.777759652903841   0.625092794955501   1.0000000
B2   B   0.055482706104848   0.277780110074640   0.625137767705741   1.0000000
B2   B   0.388845068536023   0.277690066668710   0.625450255626483   1.0000000
B2   B   0.555567343746108   0.777846686455340   0.625126020298578   1.0000000
B2   B   0.888950724334505   0.777803394126225   0.625092688775431   1.0000000
B2   B   0.722292254410024   0.277780956063733   0.625127781286366   1.0000000
B2   B   0.055563887974768   0.777756741895483   0.124918578563276   1.0000000
B2   B   0.388849600932825   0.777806640633103   0.124895952895759   1.0000000
B2   B   0.222095721670345   0.277714527501841   0.124745341034105   1.0000000
B2   B   0.722292254410024   0.777844631679627   0.124872218713635   1.0000000
B2   B   0.555639379545768   0.277727310372217   0.124821043598972   1.0000000
B2   B   0.888895733029539   0.277796136778245   0.124907245915743   1.0000000
B2   B   0.055519620506909   0.444483334473747   0.625105275401091   1.0000000
B2   B   0.222163024821858   0.944330710138527   0.625110556872553   1.0000000
B2   B   0.555545725288111   0.944439529310720   0.625096748476138   1.0000000
B2   B   0.388845068536023   0.444488335200649   0.625450255626483   1.0000000
B2   B   0.888895733029539   0.944432929584630   0.625092754084257   1.0000000
B2   B   0.055519620506909   0.944369619366490   0.124894724598909   1.0000000
B2   B   0.722377357608291   0.444494943073673   0.625114595058843   1.0000000
B2   B   0.388849600932825   0.944376293633057   0.124895952895759   1.0000000
B2   B   0.222117919788217   0.444496832526817   0.124835660843046   1.0000000
B2   B   0.222163024821858   0.611165648016666   0.124889443127447   1.0000000
B2   B   0.555673513057285   0.444503423195307   0.124637240824748   1.0000000
B2   B   0.722233878787211   0.944462914776177   0.124911298494349   1.0000000
B2   B   0.888950724334505   0.444480663541616   0.124907311224569   1.0000000
B2   B   0.055563887974768   0.611140479412620   0.625081421436724   1.0000000
B2   B   0.222117919788217   0.110954420594736   0.625164339156954   1.0000000
B2   B   0.722377357608291   0.611215747867953   0.625114595058843   1.0000000
B2   B   0.555567343746108   0.111053990624103   0.625126020298578   1.0000000
B2   B   0.888869265496603   0.111101299414973   0.625094257355524   1.0000000


