data_1
_audit_creation_method   'vasp2cif'
_cell_length_a    14.93631414619966
_cell_length_b    14.936314146199727
_cell_length_c    13.341276283792837
_cell_angle_alpha    90.0
_cell_angle_beta    90.0
_cell_angle_gamma    119.99999999999984

_symmetry_space_group_name_H-M    'P 1'
loop_
_atom_site_label
_atom_site_type_symbol
_atom_site_fract_x
_atom_site_fract_y
_atom_site_fract_z
_atom_site_occupancy
Pb2   Pb   0.494494807200568   0.413914070266948   0.375000000000000   1.0000000
N2   N   0.111123970347734   0.055542238093322   0.125101522473598   1.0000000
N2   N   0.611146017859410   0.555613718852532   0.123678097318222   1.0000000
N2   N   0.444459614102342   0.055539277779716   0.125089635315988   1.0000000
N2   N   0.944458611183478   0.555566484248821   0.125244826992865   1.0000000
N2   N   0.777803024349121   0.055568178841225   0.125071769908675   1.0000000
N2   N   0.111124880289692   0.722229106811510   0.624852327264664   1.0000000
N2   N   0.444459614102342   0.722253669655961   0.624910364684012   1.0000000
N2   N   0.277776506317614   0.222201465222450   0.625523105989614   1.0000000
N2   N   0.777787678146196   0.722225597100922   0.624896824604930   1.0000000
N2   N   0.611124697842412   0.222202992243036   0.625131722876054   1.0000000
N2   N   0.944471834836946   0.222242269774403   0.624871899806289   1.0000000
N2   N   0.277792313507577   0.722240431581941   0.125153040749863   1.0000000
N2   N   0.111140639863785   0.222236986598553   0.125043032543686   1.0000000
N2   N   0.444475554993215   0.222214181291433   0.124423662968443   1.0000000
N2   N   0.611124697842412   0.722255038932704   0.124868277123946   1.0000000
N2   N   0.944458611183478   0.722225460267992   0.125244826992865   1.0000000
N2   N   0.777795593353419   0.222231787966531   0.125125162937376   1.0000000
N2   N   0.111125082658256   0.888882559822132   0.624838879481940   1.0000000
N2   N   0.444460782698900   0.888897058016114   0.624850588098374   1.0000000
N2   N   0.277776506317614   0.388908374428493   0.625523105989614   1.0000000
N2   N   0.611146017859410   0.388865632340207   0.626321902681778   1.0000000
N2   N   0.777795593353419   0.888897138720217   0.624874837062624   1.0000000
N2   N   0.944461146881023   0.388908107505981   0.624784586588392   1.0000000
N2   N   0.111123970347734   0.388915065587740   0.125101522473598   1.0000000
N2   N   0.277792313507577   0.888885215258965   0.125153040749863   1.0000000
N2   N   0.611127843761634   0.888909716416901   0.125114321496257   1.0000000
N2   N   0.444430624668057   0.388881979000696   0.124348971341491   1.0000000
N2   N   0.944461146881023   0.888886372708370   0.125215413411608   1.0000000
N2   N   0.777787678146196   0.388895414378602   0.125103175395070   1.0000000
N2   N   0.277795478814779   0.555588909671962   0.624944533011314   1.0000000
N2   N   0.111123970347734   0.055542238093322   0.624898477526402   1.0000000
N2   N   0.611146017859410   0.555613718852532   0.626321902681778   1.0000000
N2   N   0.444459614102342   0.055539277779716   0.624910364684012   1.0000000
N2   N   0.944458611183478   0.555566484248821   0.624755173007142   1.0000000
N2   N   0.111125082658256   0.555575856169460   0.125161120518067   1.0000000
N2   N   0.777803024349121   0.055568178841225   0.624928230091325   1.0000000
N2   N   0.277795478814779   0.055539902476153   0.125055466988686   1.0000000
N2   N   0.444475554993215   0.555594707035118   0.124423662968443   1.0000000
N2   N   0.777787369969842   0.555560351651585   0.124915831237603   1.0000000
N2   N   0.611127843761634   0.055551460678061   0.125114321496257   1.0000000
N2   N   0.444475554993215   0.555594707035118   0.625576337031557   1.0000000
N2   N   0.944471834836946   0.055562898395872   0.125128100193711   1.0000000
N2   N   0.277792313507577   0.722240431581941   0.624846959250137   1.0000000
N2   N   0.111140639863785   0.222236986598553   0.624956967456314   1.0000000
N2   N   0.444475554993215   0.222214181291433   0.625576337031557   1.0000000
N2   N   0.611124697842412   0.722255038932704   0.625131722876054   1.0000000
N2   N   0.944458611183478   0.722225460267992   0.624755173007142   1.0000000
N2   N   0.777795593353419   0.222231787966531   0.624874837062624   1.0000000
N2   N   0.111124880289692   0.722229106811510   0.125147672735336   1.0000000
N2   N   0.444459614102342   0.722253669655961   0.125089635315988   1.0000000
N2   N   0.277776506317614   0.222201465222450   0.124476894010386   1.0000000
N2   N   0.777787678146196   0.722225597100922   0.125103175395070   1.0000000
N2   N   0.611124697842412   0.222202992243036   0.124868277123946   1.0000000
N2   N   0.944471834836946   0.222242269774403   0.125128100193711   1.0000000
N2   N   0.111123970347734   0.388915065587740   0.624898477526402   1.0000000
N2   N   0.277792313507577   0.888885215258965   0.624846959250137   1.0000000
N2   N   0.611127843761634   0.888909716416901   0.624885678503743   1.0000000
N2   N   0.444430624668057   0.388881979000696   0.625651028658509   1.0000000
N2   N   0.944461146881023   0.888886372708370   0.624784586588392   1.0000000
N2   N   0.111125082658256   0.888882559822132   0.125161120518067   1.0000000
N2   N   0.777787678146196   0.388895414378602   0.624896824604930   1.0000000
N2   N   0.444460782698900   0.888897058016114   0.125149411901626   1.0000000
N2   N   0.277776506317614   0.388908374428493   0.124476894010386   1.0000000
N2   N   0.277795478814779   0.555588909671962   0.125055466988686   1.0000000
N2   N   0.611146017859410   0.388865632340207   0.123678097318222   1.0000000
N2   N   0.777795593353419   0.888897138720217   0.125125162937376   1.0000000
N2   N   0.944461146881023   0.388908107505981   0.125215413411608   1.0000000
N2   N   0.111125082658256   0.555575856169460   0.624838879481940   1.0000000
N2   N   0.277795478814779   0.055539902476153   0.624944533011314   1.0000000
N2   N   0.777787369969842   0.555560351651585   0.625084168762397   1.0000000
N2   N   0.611127843761634   0.055551460678061   0.624885678503743   1.0000000
N2   N   0.944471834836946   0.055562898395872   0.624871899806289   1.0000000
N2   N   0.057742918265086   0.112305606202272   0.375000000000000   1.0000000
N2   N   0.555219114098982   0.618914134527007   0.375000000000000   1.0000000
N2   N   0.387573876495757   0.103373039948690   0.375000000000000   1.0000000
N2   N   0.888716381666913   0.611024857500132   0.375000000000000   1.0000000
N2   N   0.724254388274383   0.111357909807201   0.375000000000000   1.0000000
N2   N   0.055522452451498   0.777763193722628   0.875000000000000   1.0000000
N2   N   0.388866923516121   0.777766065235229   0.875000000000000   1.0000000
N2   N   0.222186951450847   0.277760142392091   0.875000000000000   1.0000000
N2   N   0.722197957516678   0.777766850682528   0.875000000000000   1.0000000
N2   N   0.555527252436272   0.277762535448720   0.875000000000000   1.0000000
N2   N   0.888863862696552   0.277765175839875   0.875000000000000   1.0000000
N2   N   0.221151950424191   0.777242641878767   0.375000000000000   1.0000000
N2   N   0.057742918265086   0.278770645396150   0.375000000000000   1.0000000
N2   N   0.386265611930464   0.262915543666422   0.375000000000000   1.0000000
N2   N   0.556335279705127   0.781828768521931   0.375000000000000   1.0000000
N2   N   0.890073529490288   0.778965871220409   0.375000000000000   1.0000000
N2   N   0.724102528417224   0.276797759841645   0.375000000000000   1.0000000
N2   N   0.055523673475758   0.944430181836826   0.875000000000000   1.0000000
N2   N   0.388866923516121   0.944434191614221   0.875000000000000   1.0000000
N2   N   0.222187952488731   0.444425871835417   0.875000000000000   1.0000000
N2   N   0.555523801842848   0.444428567588092   0.875000000000000   1.0000000
N2   N   0.722198362589840   0.944432550282210   0.875000000000000   1.0000000
N2   N   0.888861252110853   0.444428176472575   0.875000000000000   1.0000000
N2   N   0.055906745199813   0.445020663123444   0.375000000000000   1.0000000
N2   N   0.221039101475508   0.942150995955178   0.375000000000000   1.0000000
N2   N   0.556517306247266   0.944925319790297   0.375000000000000   1.0000000
N2   N   0.386265611930464   0.456683401597370   0.375000000000000   1.0000000
N2   N   0.890868893858250   0.946092582330296   0.375000000000000   1.0000000
N2   N   0.724653666371935   0.444616073899950   0.375000000000000   1.0000000
N2   N   0.222191666508009   0.611092726305042   0.875000000000000   1.0000000
N2   N   0.055523086816876   0.111094907992541   0.875000000000000   1.0000000
N2   N   0.555527252436272   0.611098050320888   0.875000000000000   1.0000000
N2   N   0.388861733303684   0.111098898921271   0.875000000000000   1.0000000
N2   N   0.888859190538100   0.611096261935722   0.875000000000000   1.0000000
N2   N   0.054842732624773   0.611055953605895   0.375000000000000   1.0000000
N2   N   0.722198362589840   0.111099145640967   0.875000000000000   1.0000000
N2   N   0.221794408647763   0.108719291047277   0.375000000000000   1.0000000
N2   N   0.387573876495757   0.617534169880409   0.375000000000000   1.0000000
N2   N   0.724653666371935   0.613370925805321   0.375000000000000   1.0000000
N2   N   0.556335279705127   0.107839844516531   0.375000000000000   1.0000000
N2   N   0.388861733303684   0.611096167715756   0.875000000000000   1.0000000
N2   N   0.891205623591940   0.112269478462641   0.375000000000000   1.0000000
N2   N   0.222193829614997   0.777763581474167   0.875000000000000   1.0000000
N2   N   0.055523086816876   0.277761512157670   0.875000000000000   1.0000000
N2   N   0.388860702069042   0.277765008149258   0.875000000000000   1.0000000
N2   N   0.555531634067226   0.777766486525903   0.875000000000000   1.0000000
N2   N   0.888861252110853   0.777766408971614   0.875000000000000   1.0000000
N2   N   0.722197957516678   0.277764440167493   0.875000000000000   1.0000000
N2   N   0.054842732624773   0.777120112352214   0.375000000000000   1.0000000
N2   N   0.388355916595418   0.779610011810714   0.375000000000000   1.0000000
N2   N   0.225494910155622   0.279414121744482   0.375000000000000   1.0000000
N2   N   0.724102528417224   0.780638101908922   0.375000000000000   1.0000000
N2   N   0.555219114098982   0.269638312905311   0.375000000000000   1.0000000
N2   N   0.890868893858250   0.278109644861290   0.375000000000000   1.0000000
N2   N   0.055523673475758   0.444426824972261   0.875000000000000   1.0000000
N2   N   0.222191666508009   0.944432273536302   0.875000000000000   1.0000000
N2   N   0.555533853833637   0.944433593583479   0.875000000000000   1.0000000
N2   N   0.388860702069042   0.444429027253119   0.875000000000000   1.0000000
N2   N   0.888863862696552   0.944432020190006   0.875000000000000   1.0000000
N2   N   0.055906745199813   0.944219415409697   0.375000000000000   1.0000000
N2   N   0.722195873977218   0.444431094239015   0.875000000000000   1.0000000
N2   N   0.388355916595418   0.942079238118040   0.375000000000000   1.0000000
N2   N   0.221794408647763   0.446408450933814   0.375000000000000   1.0000000
N2   N   0.221039101475508   0.612221438853673   0.375000000000000   1.0000000
N2   N   0.724254388274383   0.946229811800518   0.375000000000000   1.0000000
N2   N   0.890073529490288   0.444440991603215   0.375000000000000   1.0000000
N2   N   0.055522452451498   0.611092592062205   0.875000000000000   1.0000000
N2   N   0.222187952488731   0.111095413986649   0.875000000000000   1.0000000
N2   N   0.722195873977218   0.611098113071538   0.875000000000000   1.0000000
N2   N   0.555531634067226   0.111098480874658   0.875000000000000   1.0000000
N2   N   0.888863201873262   0.111098267603306   0.875000000000000   1.0000000
B2   B   0.111435952451589   0.055020713917063   0.375000000000000   1.0000000
B2   B   0.619710687324532   0.576594905790298   0.375000000000000   1.0000000
B2   B   0.444870140262038   0.051179343619245   0.375000000000000   1.0000000
B2   B   0.944679002426900   0.555509823517409   0.375000000000000   1.0000000
B2   B   0.780419125170832   0.056876229252087   0.375000000000000   1.0000000
B2   B   0.111093862929931   0.722213598131633   0.875000000000000   1.0000000
B2   B   0.444409389061440   0.722231609162256   0.875000000000000   1.0000000
B2   B   0.277674840876042   0.222161990669137   0.875000000000000   1.0000000
B2   B   0.777793412145534   0.722270591776909   0.875000000000000   1.0000000
B2   B   0.611101291543137   0.222166316064967   0.875000000000000   1.0000000
B2   B   0.944418305771097   0.222198547746185   0.875000000000000   1.0000000
B2   B   0.277141775732365   0.722914598208520   0.375000000000000   1.0000000
B2   B   0.113865168133559   0.223599250733443   0.375000000000000   1.0000000
B2   B   0.442438968491455   0.211145121642851   0.375000000000000   1.0000000
B2   B   0.613456848468378   0.729795538988235   0.375000000000000   1.0000000
B2   B   0.944679002426900   0.722502512242834   0.375000000000000   1.0000000
B2   B   0.780351983182010   0.221879498192587   0.375000000000000   1.0000000
B2   B   0.111082470186292   0.888881129062642   0.875000000000000   1.0000000
B2   B   0.444420757546094   0.888877045439715   0.875000000000000   1.0000000
B2   B   0.277674840876042   0.388846183540233   0.875000000000000   1.0000000
B2   B   0.611101950651719   0.388848995320485   0.875000000000000   1.0000000
B2   B   0.777779829301497   0.888924229784240   0.875000000000000   1.0000000
B2   B   0.944437188439186   0.388860099926123   0.875000000000000   1.0000000
B2   B   0.111435952451589   0.389748571867855   0.375000000000000   1.0000000
B2   B   0.277141775732365   0.887560510857174   0.375000000000000   1.0000000
B2   B   0.613276730424915   0.891866456255127   0.375000000000000   1.0000000
B2   B   0.945720368433137   0.890208437920431   0.375000000000000   1.0000000
B2   B   0.780680042017817   0.387653096393909   0.375000000000000   1.0000000
B2   B   0.277715772718703   0.555536268463457   0.875000000000000   1.0000000
B2   B   0.111054925073265   0.055532448239643   0.875000000000000   1.0000000
B2   B   0.611101950651719   0.555586288664568   0.875000000000000   1.0000000
B2   B   0.444409389061440   0.055511113232519   0.875000000000000   1.0000000
B2   B   0.944451876950397   0.555545400944972   0.875000000000000   1.0000000
B2   B   0.110497180121556   0.555897856968156   0.375000000000000   1.0000000
B2   B   0.777770788604016   0.055552060968676   0.875000000000000   1.0000000
B2   B   0.276511437873598   0.052178303146123   0.375000000000000   1.0000000
B2   B   0.442438968491455   0.564627180181939   0.375000000000000   1.0000000
B2   B   0.779244135859252   0.556288734596294   0.375000000000000   1.0000000
B2   B   0.613276730424915   0.054743607503117   0.375000000000000   1.0000000
B2   B   0.444384079794667   0.555564548182496   0.875000000000000   1.0000000
B2   B   0.946905410813067   0.057207160023997   0.375000000000000   1.0000000
B2   B   0.277744385151209   0.722209467847981   0.875000000000000   1.0000000
B2   B   0.111038158873886   0.222185746103607   0.875000000000000   1.0000000
B2   B   0.444384079794667   0.222152864945514   0.875000000000000   1.0000000
B2   B   0.611101291543137   0.722268308811506   0.875000000000000   1.0000000
B2   B   0.944451876950397   0.722239809338768   0.875000000000000   1.0000000
B2   B   0.777779829301497   0.222188932850584   0.875000000000000   1.0000000
B2   B   0.110461740185214   0.721897536759271   0.375000000000000   1.0000000
B2   B   0.444870140262038   0.727024129976129   0.375000000000000   1.0000000
B2   B   0.277566249551210   0.219660900918550   0.375000000000000   1.0000000
B2   B   0.780680042017817   0.726360278957237   0.375000000000000   1.0000000
B2   B   0.613456848468378   0.216994642813471   0.375000000000000   1.0000000
B2   B   0.946905410813067   0.223031584122406   0.375000000000000   1.0000000
B2   B   0.111054925073265   0.388855810166958   0.875000000000000   1.0000000
B2   B   0.277744385151209   0.888868250636557   0.875000000000000   1.0000000
B2   B   0.611100947001077   0.888904002863975   0.875000000000000   1.0000000
B2   B   0.444362634718858   0.388847984026097   0.875000000000000   1.0000000
B2   B   0.944437188439186   0.888910421846393   0.875000000000000   1.0000000
B2   B   0.110497180121556   0.887932656486736   0.375000000000000   1.0000000
B2   B   0.777793412145534   0.388856153701947   0.875000000000000   1.0000000
B2   B   0.445165595014894   0.889249464174115   0.375000000000000   1.0000000
B2   B   0.277566249551210   0.391238681965989   0.375000000000000   1.0000000
B2   B   0.276511437873598   0.557666468060810   0.375000000000000   1.0000000
B2   B   0.619710687324532   0.376449114867562   0.375000000000000   1.0000000
B2   B   0.780351983182010   0.891805818322752   0.375000000000000   1.0000000
B2   B   0.945720368433137   0.388845263846035   0.375000000000000   1.0000000
B2   B   0.111082470186292   0.555534674456979   0.875000000000000   1.0000000
B2   B   0.277715772718703   0.055512837588582   0.875000000000000   1.0000000
B2   B   0.777799105914822   0.555566219624075   0.875000000000000   1.0000000
B2   B   0.611100947001077   0.055530277470431   0.875000000000000   1.0000000
B2   B   0.944418305771097   0.055553091358255   0.875000000000000   1.0000000
B2   B   0.055567061129941   0.111106563482613   0.124959167747614   1.0000000
B2   B   0.555519543684158   0.611312727382642   0.123676611390347   1.0000000
B2   B   0.388787435144579   0.110897807359438   0.124650612973116   1.0000000
B2   B   0.889090526184736   0.611211929759040   0.124824639765704   1.0000000
B2   B   0.722249267215134   0.111076832285302   0.124894996603345   1.0000000
B2   B   0.055661750076424   0.777828202396662   0.625025921562129   1.0000000
B2   B   0.388853328792095   0.777819511479606   0.625047218380834   1.0000000
B2   B   0.222126182100873   0.277729757717108   0.625493958893668   1.0000000
B2   B   0.722291832402800   0.777927730035633   0.625335415475312   1.0000000
B2   B   0.555519543684158   0.277540149634859   0.626323388609653   1.0000000
B2   B   0.888957492381064   0.277777115743589   0.625039699327754   1.0000000
B2   B   0.222244868873567   0.777789101103451   0.124974380680033   1.0000000
B2   B   0.055567061129941   0.277793830980664   0.124959167747614   1.0000000
B2   B   0.388610556279423   0.277405300532343   0.123882495595115   1.0000000
B2   B   0.555522669556310   0.777897222042133   0.124772871523855   1.0000000
B2   B   0.889040412625534   0.777895906678470   0.124915013917896   1.0000000
B2   B   0.722291832402800   0.277697435700503   0.124664584524688   1.0000000
B2   B   0.055604206015825   0.944456463864978   0.625003945810942   1.0000000
B2   B   0.388853328792095   0.944367150645825   0.625047218380834   1.0000000
B2   B   0.222145039527657   0.444494985000318   0.625252902936404   1.0000000
B2   B   0.555706428154790   0.444519880744063   0.627002770474442   1.0000000
B2   B   0.722249267215134   0.944505768263168   0.625105003396656   1.0000000
B2   B   0.889040412625534   0.444477839280393   0.625084986082104   1.0000000
B2   B   0.055604206015825   0.444481075484176   0.124996054189058   1.0000000
B2   B   0.222217032342342   0.944384705918970   0.124969026298883   1.0000000
B2   B   0.555538358002010   0.944435845667666   0.124942384397821   1.0000000
B2   B   0.388610556279423   0.444538589080416   0.123882495595115   1.0000000
B2   B   0.888957492381064   0.944513709970811   0.124960300672246   1.0000000
B2   B   0.722432135702628   0.444480331819430   0.123937548118732   1.0000000
B2   B   0.222217032342342   0.611165659756709   0.625030973701117   1.0000000
B2   B   0.055567061129941   0.111106563482613   0.625040832252386   1.0000000
B2   B   0.555519543684158   0.611312727382642   0.626323388609653   1.0000000
B2   B   0.388787435144579   0.110897807359438   0.625349387026884   1.0000000
B2   B   0.889090526184736   0.611211929759040   0.625175360234296   1.0000000
B2   B   0.055661750076424   0.611166881013097   0.124974078437870   1.0000000
B2   B   0.722249267215134   0.111076832285302   0.625105003396656   1.0000000
B2   B   0.222145039527657   0.110983387860675   0.124747097063596   1.0000000
B2   B   0.388787435144579   0.611222961118484   0.124650612973116   1.0000000
B2   B   0.722432135702628   0.611285137216533   0.123937548118732   1.0000000
B2   B   0.555522669556310   0.110958780847506   0.124772871523855   1.0000000
B2   B   0.388787435144579   0.611222961118484   0.625349387026884   1.0000000
B2   B   0.888932697247743   0.111133015290543   0.124946016156487   1.0000000
B2   B   0.222244868873567   0.777789101103451   0.625025619319967   1.0000000
B2   B   0.055567061129941   0.277793830980664   0.625040832252386   1.0000000
B2   B   0.388610556279423   0.277405300532343   0.626117504404884   1.0000000
B2   B   0.555522669556310   0.777897222042133   0.625227128476145   1.0000000
B2   B   0.889040412625534   0.777895906678470   0.625084986082104   1.0000000
B2   B   0.722291832402800   0.277697435700503   0.625335415475312   1.0000000
B2   B   0.055661750076424   0.777828202396662   0.124974078437870   1.0000000
B2   B   0.388853328792095   0.777819511479606   0.124952781619166   1.0000000
B2   B   0.222126182100873   0.277729757717108   0.124506041106332   1.0000000
B2   B   0.722291832402800   0.777927730035633   0.124664584524688   1.0000000
B2   B   0.555519543684158   0.277540149634859   0.123676611390347   1.0000000
B2   B   0.888957492381064   0.277777115743589   0.124960300672246   1.0000000
B2   B   0.055604206015825   0.444481075484176   0.625003945810942   1.0000000
B2   B   0.222217032342342   0.944384705918970   0.625030973701117   1.0000000
B2   B   0.555538358002010   0.944435845667666   0.625057615602180   1.0000000
B2   B   0.388610556279423   0.444538589080416   0.626117504404884   1.0000000
B2   B   0.888957492381064   0.944513709970811   0.625039699327754   1.0000000
B2   B   0.055604206015825   0.944456463864978   0.124996054189058   1.0000000
B2   B   0.722432135702628   0.444480331819430   0.626062451881275   1.0000000
B2   B   0.388853328792095   0.944367150645825   0.124952781619166   1.0000000
B2   B   0.222145039527657   0.444494985000318   0.124747097063596   1.0000000
B2   B   0.222217032342342   0.611165659756709   0.124969026298883   1.0000000
B2   B   0.555706428154790   0.444519880744063   0.122997229525558   1.0000000
B2   B   0.722249267215134   0.944505768263168   0.124894996603345   1.0000000
B2   B   0.889040412625534   0.444477839280393   0.124915013917896   1.0000000
B2   B   0.055661750076424   0.611166881013097   0.625025921562129   1.0000000
B2   B   0.222145039527657   0.110983387860675   0.625252902936404   1.0000000
B2   B   0.722432135702628   0.611285137216533   0.626062451881275   1.0000000
B2   B   0.555522669556310   0.110958780847506   0.625227128476145   1.0000000
B2   B   0.888932697247743   0.111133015290543   0.625053983843513   1.0000000


