data_1
_audit_creation_method   'vasp2cif'
_cell_length_a    17.52789999999977
_cell_length_b    17.52789999999977
_cell_length_c    15.0
_cell_angle_alpha    90.0
_cell_angle_beta    90.0
_cell_angle_gamma    119.99999999999916

_symmetry_space_group_name_H-M    'P 1'
loop_
_atom_site_label
_atom_site_type_symbol
_atom_site_fract_x
_atom_site_fract_y
_atom_site_fract_z
_atom_site_occupancy
P2   P   0.393812563867324   0.484104488975184   0.110302346831507   1.0000000
B2   B   0.907167686549025   0.952277693189917   0.110753744957636   1.0000000
B2   B   0.908486577417197   0.095725718981940   0.110774726890295   1.0000000
B2   B   0.908727755135742   0.238436908013490   0.110689368618151   1.0000000
B2   B   0.908075765374582   0.380982110055176   0.110653826823126   1.0000000
B2   B   0.905654415795808   0.523317521907731   0.110770841709677   1.0000000
B2   B   0.903722667173610   0.665263500145733   0.110815462228633   1.0000000
B2   B   0.903761438272272   0.807261147532338   0.110711984199529   1.0000000
B2   B   0.048894008454240   0.951847569694320   0.110698675083296   1.0000000
B2   B   0.050614770315335   0.095123621137701   0.110769200026478   1.0000000
B2   B   0.051763131692813   0.238753614471711   0.110806218519306   1.0000000
B2   B   0.050981336899981   0.381681006265853   0.110678750384617   1.0000000
B2   B   0.048308273238584   0.524519139748686   0.110647855953873   1.0000000
B2   B   0.047506347233987   0.666815753355105   0.110738367146498   1.0000000
B2   B   0.047580182987051   0.809004487313463   0.110720590607803   1.0000000
B2   B   0.191651364465542   0.952240649542846   0.110708917586558   1.0000000
B2   B   0.193855635688172   0.095570779473350   0.110703944304793   1.0000000
B2   B   0.193830605868129   0.237117658557264   0.110818459858820   1.0000000
B2   B   0.194995708556259   0.382401420589004   0.110850526337877   1.0000000
B2   B   0.189938904765744   0.525944382245188   0.110723859072072   1.0000000
B2   B   0.190521736006856   0.668427719783051   0.110716725362600   1.0000000
B2   B   0.190858480399587   0.810226281164299   0.110704892967098   1.0000000
B2   B   0.334890275751244   0.952873511792782   0.110746282378321   1.0000000
B2   B   0.335916622586686   0.093918049884326   0.110763547507072   1.0000000
B2   B   0.340418784815558   0.237152149720351   0.110787129350123   1.0000000
B2   B   0.336849895587353   0.368943348253366   0.110841790450405   1.0000000
B2   B   0.330212359301236   0.535121125774385   0.110764436277139   1.0000000
B2   B   0.333641877791508   0.673036787818999   0.110770768834324   1.0000000
B2   B   0.334317950607132   0.812430048844081   0.110797620113832   1.0000000
B2   B   0.478631373027120   0.953749944617165   0.110776622902669   1.0000000
B2   B   0.479188760127694   0.094585092204628   0.110842730576373   1.0000000
B2   B   0.480371316598898   0.235883333951322   0.110771541426867   1.0000000
B2   B   0.493773128881562   0.386940100285850   0.110872679092220   1.0000000
B2   B   0.477704072177415   0.673535869182363   0.110705267974475   1.0000000
B2   B   0.478439679889876   0.813337217780437   0.110784581695312   1.0000000
B2   B   0.622339897214348   0.953673699447990   0.110719102480994   1.0000000
B2   B   0.622590741303730   0.095162554725833   0.110744230808757   1.0000000
B2   B   0.622973787577281   0.236523653347765   0.110818549206220   1.0000000
B2   B   0.623940380276770   0.377634974388811   0.110791664864371   1.0000000
B2   B   0.606166646729775   0.506017070320749   0.110835145518982   1.0000000
B2   B   0.622997090493072   0.668897524528539   0.110690626422118   1.0000000
B2   B   0.622210021232194   0.811676139682142   0.110744913408150   1.0000000
B2   B   0.765272763094426   0.953119751906963   0.110757118504801   1.0000000
B2   B   0.765744240095713   0.095649828653654   0.110700277537109   1.0000000
B2   B   0.765885764933156   0.237822763358488   0.110709397966314   1.0000000
B2   B   0.765683629480499   0.380036104568968   0.110791563481797   1.0000000
B2   B   0.761867234244247   0.521573540071095   0.110839271002510   1.0000000
B2   B   0.756850851395328   0.660684154204493   0.110760606081262   1.0000000
B2   B   0.764217237432837   0.809691965021341   0.110701006160266   1.0000000
N2   N   0.953262409304934   0.903471680588485   0.110702283445597   1.0000000
N2   N   0.955461913349454   0.047638606258836   0.110760518622851   1.0000000
N2   N   0.956489850724842   0.191041820493634   0.110745862711018   1.0000000
N2   N   0.956045309394304   0.333614889647049   0.110619552801828   1.0000000
N2   N   0.953816193807347   0.476170670135627   0.110650186657676   1.0000000
N2   N   0.952449954692695   0.618586449529521   0.110780184266446   1.0000000
N2   N   0.952175695207132   0.760707287407231   0.110736432148218   1.0000000
N2   N   0.096213885268633   0.904299978181693   0.110671247021594   1.0000000
N2   N   0.097956918878469   0.047492032625296   0.110690497369293   1.0000000
N2   N   0.098638451885583   0.190305836335367   0.110785124847636   1.0000000
N2   N   0.099463755196890   0.334334408103492   0.110755859827775   1.0000000
N2   N   0.095802789539162   0.477055933399750   0.110620764918762   1.0000000
N2   N   0.095508416014961   0.619793478827189   0.110663703868796   1.0000000
N2   N   0.095541156556975   0.762024432420597   0.110703195158312   1.0000000
N2   N   0.239376534151929   0.905139196366813   0.110676248228000   1.0000000
N2   N   0.240421877644157   0.047176995747827   0.110705564719370   1.0000000
N2   N   0.243216200415731   0.190963150874876   0.110729489492088   1.0000000
N2   N   0.241690476729593   0.332090775411080   0.110882303084374   1.0000000
N2   N   0.237108984896738   0.478632505977360   0.110816126996879   1.0000000
N2   N   0.238336264320393   0.621699755296336   0.110705044879335   1.0000000
N2   N   0.238860325520877   0.763537482908036   0.110713530457735   1.0000000
N2   N   0.383089834305661   0.906653573984163   0.110758274580022   1.0000000
N2   N   0.383653739949154   0.047129736717599   0.110777736792698   1.0000000
N2   N   0.385107481421112   0.187969617418455   0.110729599865932   1.0000000
N2   N   0.392315625369793   0.331920832557673   0.110873814691189   1.0000000
N2   N   0.382156774520389   0.628308072994594   0.110728185193345   1.0000000
N2   N   0.382790124573815   0.766875865550277   0.110773557438880   1.0000000
N2   N   0.526954722858843   0.907425620184810   0.110724956058505   1.0000000
N2   N   0.527227679123947   0.047977615302359   0.110768873724450   1.0000000
N2   N   0.527840000530967   0.188700104161568   0.110830708690565   1.0000000
N2   N   0.529631568055443   0.329636388492205   0.110730720279622   1.0000000
N2   N   0.496926009571392   0.543359042519954   0.110171210876649   1.0000000
N2   N   0.529034919427844   0.630625731401078   0.110532844601352   1.0000000
N2   N   0.526885246828619   0.767208872822032   0.110746145549658   1.0000000
N2   N   0.670134308271271   0.906431252267396   0.110726730621150   1.0000000
N2   N   0.670535847287201   0.048269651497669   0.110662907508908   1.0000000
N2   N   0.670836298834176   0.189682346045491   0.110751283350877   1.0000000
N2   N   0.671400330242081   0.330983556080207   0.110802098401027   1.0000000
N2   N   0.667508616318105   0.472290690838061   0.110791823783272   1.0000000
N2   N   0.659820134411966   0.610458268025921   0.110759517814182   1.0000000
N2   N   0.669874413475066   0.763925838917811   0.110704394071465   1.0000000
N2   N   0.812287971531250   0.905072657244380   0.110721247935658   1.0000000
N2   N   0.813328579144663   0.048232771092639   0.110727737878109   1.0000000
N2   N   0.813666179796525   0.190610060682934   0.110656215244218   1.0000000
N2   N   0.813467149610860   0.332799417991956   0.110695029524437   1.0000000
N2   N   0.811168919139776   0.475069376122899   0.110804362156148   1.0000000
N2   N   0.808402261714330   0.616786644906949   0.110813757842279   1.0000000
N2   N   0.807963143291590   0.758507550272438   0.110682916716771   1.0000000


