data_1
_audit_creation_method   'vasp2cif'
_cell_length_a    14.93631414619966
_cell_length_b    14.936314146199727
_cell_length_c    13.341276283792837
_cell_angle_alpha    90.0
_cell_angle_beta    90.0
_cell_angle_gamma    119.99999999999984

_symmetry_space_group_name_H-M    'P 1'
loop_
_atom_site_label
_atom_site_type_symbol
_atom_site_fract_x
_atom_site_fract_y
_atom_site_fract_z
_atom_site_occupancy
O2   O   0.444444444444443   0.388888888888886   0.375000000000000   1.0000000
N2   N   0.111105369184631   0.055564970215436   0.124900606667555   1.0000000
N2   N   0.611104073449859   0.555573317609942   0.124812363002350   1.0000000
N2   N   0.444459601030806   0.055564970215436   0.124900606667555   1.0000000
N2   N   0.944433088782094   0.555547227644671   0.124921224594159   1.0000000
N2   N   0.777777777777779   0.055555555555557   0.124932723794951   1.0000000
N2   N   0.111111111111114   0.722222222222221   0.625055089836110   1.0000000
N2   N   0.444459601030806   0.722227964148705   0.625099393332445   1.0000000
N2   N   0.277760015723393   0.222229259883477   0.625187636997650   1.0000000
N2   N   0.777768363117899   0.722227964148705   0.625099393332445   1.0000000
N2   N   0.611124176876702   0.222209156456633   0.625157267768577   1.0000000
N2   N   0.944428590821952   0.222214568799744   0.625101501619328   1.0000000
N2   N   0.277786105688664   0.722219194470758   0.124921224594159   1.0000000
N2   N   0.111084979579938   0.222209156456633   0.124842732231423   1.0000000
N2   N   0.444469244160083   0.222229259883477   0.124812363002350   1.0000000
N2   N   0.611124176876702   0.722248353753397   0.124842732231423   1.0000000
N2   N   0.944433088782094   0.722219194470758   0.124921224594159   1.0000000
N2   N   0.777785977977791   0.222214568799744   0.124898498380672   1.0000000
N2   N   0.111114138862578   0.888900244551235   0.625078775405841   1.0000000
N2   N   0.444458088295065   0.888895710814197   0.625084237863990   1.0000000
N2   N   0.277760015723393   0.388864089173245   0.625187636997650   1.0000000
N2   N   0.611104073449859   0.388864089173245   0.625187636997650   1.0000000
N2   N   0.777785977977791   0.888904742511376   0.625101501619328   1.0000000
N2   N   0.944437622519132   0.388875245038263   0.625084237863990   1.0000000
N2   N   0.111105369184631   0.388873732302523   0.124900606667555   1.0000000
N2   N   0.277786105688664   0.888900244551235   0.124921224594159   1.0000000
N2   N   0.611118764533592   0.888904742511376   0.124898498380672   1.0000000
N2   N   0.444444444444443   0.388888888888886   0.124519254665263   1.0000000
N2   N   0.944437622519132   0.888895710814197   0.124915762136009   1.0000000
N2   N   0.777768363117899   0.388873732302523   0.124900606667555   1.0000000
N2   N   0.277785320994225   0.555548012339110   0.625120614250603   1.0000000
N2   N   0.111105369184631   0.055564970215436   0.625099393332445   1.0000000
N2   N   0.611104073449859   0.555573317609942   0.625187636997650   1.0000000
N2   N   0.444459601030806   0.055564970215436   0.625099393332445   1.0000000
N2   N   0.944433088782094   0.555547227644671   0.625078775405841   1.0000000
N2   N   0.111114138862578   0.555547227644671   0.124921224594159   1.0000000
N2   N   0.777777777777779   0.055555555555557   0.625067276205049   1.0000000
N2   N   0.277785320994225   0.055570641988451   0.124879385749397   1.0000000
N2   N   0.444469244160083   0.555573317609942   0.124812363002350   1.0000000
N2   N   0.777762691344885   0.555548012339110   0.124879385749397   1.0000000
N2   N   0.611118764533592   0.055547355355544   0.124898498380672   1.0000000
N2   N   0.444469244160083   0.555573317609942   0.625187636997650   1.0000000
N2   N   0.944428590821952   0.055547355355544   0.124898498380672   1.0000000
N2   N   0.277786105688664   0.722219194470758   0.625078775405841   1.0000000
N2   N   0.111084979579938   0.222209156456633   0.625157267768577   1.0000000
N2   N   0.444469244160083   0.222229259883477   0.625187636997650   1.0000000
N2   N   0.611124176876702   0.722248353753397   0.625157267768577   1.0000000
N2   N   0.944433088782094   0.722219194470758   0.625078775405841   1.0000000
N2   N   0.777785977977791   0.222214568799744   0.625101501619328   1.0000000
N2   N   0.111111111111114   0.722222222222221   0.124944910163890   1.0000000
N2   N   0.444459601030806   0.722227964148705   0.124900606667555   1.0000000
N2   N   0.277760015723393   0.222229259883477   0.124812363002350   1.0000000
N2   N   0.777768363117899   0.722227964148705   0.124900606667555   1.0000000
N2   N   0.611124176876702   0.222209156456633   0.124842732231423   1.0000000
N2   N   0.944428590821952   0.222214568799744   0.124898498380672   1.0000000
N2   N   0.111105369184631   0.388873732302523   0.625099393332445   1.0000000
N2   N   0.277786105688664   0.888900244551235   0.625078775405841   1.0000000
N2   N   0.611118764533592   0.888904742511376   0.625101501619328   1.0000000
N2   N   0.444444444444443   0.388888888888886   0.625480745334737   1.0000000
N2   N   0.944437622519132   0.888895710814197   0.625084237863990   1.0000000
N2   N   0.111114138862578   0.888900244551235   0.124921224594159   1.0000000
N2   N   0.777768363117899   0.388873732302523   0.625099393332445   1.0000000
N2   N   0.444458088295065   0.888895710814197   0.124915762136009   1.0000000
N2   N   0.277760015723393   0.388864089173245   0.124812363002350   1.0000000
N2   N   0.277785320994225   0.555548012339110   0.124879385749397   1.0000000
N2   N   0.611104073449859   0.388864089173245   0.124812363002350   1.0000000
N2   N   0.777785977977791   0.888904742511376   0.124898498380672   1.0000000
N2   N   0.944437622519132   0.388875245038263   0.124915762136009   1.0000000
N2   N   0.111114138862578   0.555547227644671   0.625078775405841   1.0000000
N2   N   0.277785320994225   0.055570641988451   0.625120614250603   1.0000000
N2   N   0.777762691344885   0.555548012339110   0.625120614250603   1.0000000
N2   N   0.611118764533592   0.055547355355544   0.625101501619328   1.0000000
N2   N   0.944428590821952   0.055547355355544   0.625101501619328   1.0000000
N2   N   0.054782136367951   0.110558700643788   0.375000000000000   1.0000000
N2   N   0.556127055957929   0.612254111915858   0.375000000000000   1.0000000
N2   N   0.388157086593604   0.107185101402156   0.375000000000000   1.0000000
N2   N   0.890306197531128   0.611819765432235   0.375000000000000   1.0000000
N2   N   0.722347497613523   0.110985835719812   0.375000000000000   1.0000000
N2   N   0.055560309937946   0.777773023395390   0.875000000000000   1.0000000
N2   N   0.388893874788610   0.777774465437507   0.875000000000000   1.0000000
N2   N   0.222225696301788   0.277779514817562   0.875000000000000   1.0000000
N2   N   0.722226664567688   0.777772548525933   0.875000000000000   1.0000000
N2   N   0.555553818515774   0.277779514817562   0.875000000000000   1.0000000
N2   N   0.888889523311947   0.277779046623900   0.875000000000000   1.0000000
N2   N   0.221924370776563   0.777628852054949   0.375000000000000   1.0000000
N2   N   0.054782136367951   0.277556769057499   0.375000000000000   1.0000000
N2   N   0.380912296210943   0.261824592421893   0.375000000000000   1.0000000
N2   N   0.555776564275837   0.778551196965385   0.375000000000000   1.0000000
N2   N   0.890020537165088   0.778639080094939   0.375000000000000   1.0000000
N2   N   0.722774632689548   0.277556769057499   0.375000000000000   1.0000000
N2   N   0.055558867895829   0.944452742684440   0.875000000000000   1.0000000
N2   N   0.388893874788610   0.944452742684440   0.875000000000000   1.0000000
N2   N   0.222211294028323   0.444438720159640   0.875000000000000   1.0000000
N2   N   0.555547811658356   0.444440572495842   0.875000000000000   1.0000000
N2   N   0.722226735279605   0.944453470559210   0.875000000000000   1.0000000
N2   N   0.888880590648889   0.444439458544718   0.875000000000000   1.0000000
N2   N   0.054694253238397   0.444714790403485   0.375000000000000   1.0000000
N2   N   0.221513567901100   0.943027135802201   0.375000000000000   1.0000000
N2   N   0.555692164034974   0.944512748684152   0.375000000000000   1.0000000
N2   N   0.380912296210943   0.452421037122386   0.375000000000000   1.0000000
N2   N   0.888820584649177   0.944512748684152   0.375000000000000   1.0000000
N2   N   0.726148231931180   0.445176246739724   0.375000000000000   1.0000000
N2   N   0.222223083098586   0.611110250234749   0.875000000000000   1.0000000
N2   N   0.055560784807403   0.111106668765647   0.875000000000000   1.0000000
N2   N   0.555553818515774   0.611107637031548   0.875000000000000   1.0000000
N2   N   0.388894613173689   0.111105907202019   0.875000000000000   1.0000000
N2   N   0.888887167136155   0.611110250234749   0.875000000000000   1.0000000
N2   N   0.055704481278386   0.611408962556772   0.375000000000000   1.0000000
N2   N   0.722226735279605   0.111106598053731   0.875000000000000   1.0000000
N2   N   0.219028014808544   0.107185101402156   0.375000000000000   1.0000000
N2   N   0.388157086593604   0.614305318524791   0.375000000000000   1.0000000
N2   N   0.726148231931180   0.614305318524791   0.375000000000000   1.0000000
N2   N   0.555776564275837   0.110558700643788   0.375000000000000   1.0000000
N2   N   0.388894613173689   0.611122039305013   0.875000000000000   1.0000000
N2   N   0.888638338106282   0.110985835719812   0.375000000000000   1.0000000
N2   N   0.222212713457444   0.777773023395390   0.875000000000000   1.0000000
N2   N   0.055560784807403   0.277787449375091   0.875000000000000   1.0000000
N2   N   0.388892760837486   0.277785521674980   0.875000000000000   1.0000000
N2   N   0.555545883958244   0.777772548525933   0.875000000000000   1.0000000
N2   N   0.888880590648889   0.777774465437507   0.875000000000000   1.0000000
N2   N   0.722226664567688   0.277787449375091   0.875000000000000   1.0000000
N2   N   0.055704481278386   0.777628852054949   0.375000000000000   1.0000000
N2   N   0.388618542929844   0.778639080094939   0.375000000000000   1.0000000
N2   N   0.221079221417478   0.277206277375407   0.375000000000000   1.0000000
N2   N   0.722774632689548   0.778551196965385   0.375000000000000   1.0000000
N2   N   0.556127055957929   0.277206277375407   0.375000000000000   1.0000000
N2   N   0.888820584649177   0.277641169298362   0.375000000000000   1.0000000
N2   N   0.055558867895829   0.444439458544718   0.875000000000000   1.0000000
N2   N   0.222223083098586   0.944446166197173   0.875000000000000   1.0000000
N2   N   0.555554286709436   0.944443810021382   0.875000000000000   1.0000000
N2   N   0.388892760837486   0.444440572495842   0.875000000000000   1.0000000
N2   N   0.888889523311947   0.944443810021382   0.875000000000000   1.0000000
N2   N   0.054694253238397   0.943312796168241   0.375000000000000   1.0000000
N2   N   0.722227426131317   0.444438720159640   0.875000000000000   1.0000000
N2   N   0.388618542929844   0.943312796168241   0.375000000000000   1.0000000
N2   N   0.219028014808544   0.445176246739724   0.375000000000000   1.0000000
N2   N   0.221513567901100   0.611819765432235   0.375000000000000   1.0000000
N2   N   0.571508740911443   0.452421037122386   0.375000000000000   1.0000000
N2   N   0.722347497613523   0.944694995227047   0.375000000000000   1.0000000
N2   N   0.890020537165088   0.444714790403485   0.375000000000000   1.0000000
N2   N   0.055560309937946   0.611120619875892   0.875000000000000   1.0000000
N2   N   0.222211294028323   0.111105907202019   0.875000000000000   1.0000000
N2   N   0.722227426131317   0.611122039305013   0.875000000000000   1.0000000
N2   N   0.555545883958244   0.111106668765647   0.875000000000000   1.0000000
N2   N   0.888879862774119   0.111106598053731   0.875000000000000   1.0000000
B2   B   0.109485715095092   0.053916063551792   0.375000000000000   1.0000000
B2   B   0.614634337464496   0.558226454810049   0.375000000000000   1.0000000
B2   B   0.444430348456700   0.053916063551792   0.375000000000000   1.0000000
B2   B   0.944955249223867   0.555763854263883   0.375000000000000   1.0000000
B2   B   0.777777777777779   0.055555555555557   0.375000000000000   1.0000000
B2   B   0.111111111111114   0.722222222222221   0.875000000000000   1.0000000
B2   B   0.444441237802508   0.722195405836481   0.875000000000000   1.0000000
B2   B   0.277794774975797   0.222281770734940   0.875000000000000   1.0000000
B2   B   0.777754168033972   0.722195405836481   0.875000000000000   1.0000000
B2   B   0.611064046649924   0.222269286683412   0.875000000000000   1.0000000
B2   B   0.944434504182735   0.222258183938223   0.875000000000000   1.0000000
B2   B   0.277569479069453   0.722524728293320   0.375000000000000   1.0000000
B2   B   0.110967226977317   0.222150280155323   0.375000000000000   1.0000000
B2   B   0.443592117345554   0.218698995868841   0.375000000000000   1.0000000
B2   B   0.611183053178013   0.722366106356018   0.375000000000000   1.0000000
B2   B   0.944955249223867   0.722524728293320   0.375000000000000   1.0000000
B2   B   0.777827528745975   0.222063915887311   0.375000000000000   1.0000000
B2   B   0.111170871192954   0.888929303098936   0.875000000000000   1.0000000
B2   B   0.444493945815059   0.888913639574194   0.875000000000000   1.0000000
B2   B   0.277794774975797   0.388846337574186   0.875000000000000   1.0000000
B2   B   0.611051562598396   0.388846337574186   0.875000000000000   1.0000000
B2   B   0.777823679755488   0.888898829150593   0.875000000000000   1.0000000
B2   B   0.944419693759135   0.388839387518270   0.875000000000000   1.0000000
B2   B   0.109485715095092   0.388902984876629   0.375000000000000   1.0000000
B2   B   0.277569479069453   0.888378084109461   0.375000000000000   1.0000000
B2   B   0.611269417446025   0.889096946191993   0.375000000000000   1.0000000
B2   B   0.944382736729185   0.888950596604143   0.375000000000000   1.0000000
B2   B   0.779417269781543   0.388902984876629   0.375000000000000   1.0000000
B2   B   0.277768785756084   0.555564547577251   0.875000000000000   1.0000000
B2   B   0.111137927496855   0.055579165299363   0.875000000000000   1.0000000
B2   B   0.611051562598396   0.555538558357539   0.875000000000000   1.0000000
B2   B   0.444441237802508   0.055579165299363   0.875000000000000   1.0000000
B2   B   0.944404030234392   0.555574901427347   0.875000000000000   1.0000000
B2   B   0.110808605040015   0.555763854263883   0.375000000000000   1.0000000
B2   B   0.777777777777779   0.055555555555557   0.875000000000000   1.0000000
B2   B   0.276988533464736   0.053977066929472   0.375000000000000   1.0000000
B2   B   0.443592117345554   0.558226454810049   0.375000000000000   1.0000000
B2   B   0.779356266403864   0.556344799868600   0.375000000000000   1.0000000
B2   B   0.611269417446025   0.055505804587360   0.375000000000000   1.0000000
B2   B   0.444486995759142   0.555538558357539   0.875000000000000   1.0000000
B2   B   0.944236387141336   0.055505804587360   0.375000000000000   1.0000000
B2   B   0.277758431905989   0.722162462140382   0.875000000000000   1.0000000
B2   B   0.111205240033495   0.222269286683412   0.875000000000000   1.0000000
B2   B   0.444486995759142   0.222281770734940   0.875000000000000   1.0000000
B2   B   0.611064046649924   0.722128093299841   0.875000000000000   1.0000000
B2   B   0.944404030234392   0.722162462140382   0.875000000000000   1.0000000
B2   B   0.777823679755488   0.222258183938223   0.875000000000000   1.0000000
B2   B   0.111111111111114   0.722222222222221   0.375000000000000   1.0000000
B2   B   0.444430348456700   0.723847618238243   0.375000000000000   1.0000000
B2   B   0.275106878523286   0.218698995868841   0.375000000000000   1.0000000
B2   B   0.779417269781543   0.723847618238243   0.375000000000000   1.0000000
B2   B   0.611183053178013   0.222150280155323   0.375000000000000   1.0000000
B2   B   0.944236387141336   0.222063915887311   0.375000000000000   1.0000000
B2   B   0.111137927496855   0.388892095530820   0.875000000000000   1.0000000
B2   B   0.277758431905989   0.888929303098936   0.875000000000000   1.0000000
B2   B   0.611075149395112   0.888898829150593   0.875000000000000   1.0000000
B2   B   0.444444444444443   0.388888888888886   0.875000000000000   1.0000000
B2   B   0.944419693759135   0.888913639574194   0.875000000000000   1.0000000
B2   B   0.110808605040015   0.888378084109461   0.375000000000000   1.0000000
B2   B   0.777754168033972   0.388892095530820   0.875000000000000   1.0000000
B2   B   0.444567859874958   0.888950596604143   0.375000000000000   1.0000000
B2   B   0.275106878523286   0.389741215987775   0.375000000000000   1.0000000
B2   B   0.276988533464736   0.556344799868600   0.375000000000000   1.0000000
B2   B   0.614634337464496   0.389741215987775   0.375000000000000   1.0000000
B2   B   0.777827528745975   0.889096946191993   0.375000000000000   1.0000000
B2   B   0.944382736729185   0.388765473458371   0.375000000000000   1.0000000
B2   B   0.111170871192954   0.555574901427347   0.875000000000000   1.0000000
B2   B   0.277768785756084   0.055537571512168   0.875000000000000   1.0000000
B2   B   0.777795761821168   0.555564547577251   0.875000000000000   1.0000000
B2   B   0.611075149395112   0.055509653577847   0.875000000000000   1.0000000
B2   B   0.944434504182735   0.055509653577847   0.875000000000000   1.0000000
B2   B   0.055632564619041   0.111161127890753   0.125015572392727   1.0000000
B2   B   0.555485693393860   0.610971386787720   0.125197186243815   1.0000000
B2   B   0.388970565275786   0.111279029541949   0.125125411462096   1.0000000
B2   B   0.888775252472984   0.611054292903164   0.125003963081635   1.0000000
B2   B   0.722229242592142   0.111104090741194   0.124987354535164   1.0000000
B2   B   0.055556959483775   0.777776373849561   0.625011542833162   1.0000000
B2   B   0.388941477944880   0.777731224175843   0.624998111420167   1.0000000
B2   B   0.222361946545616   0.277847639939475   0.624802813756185   1.0000000
B2   B   0.722172205442583   0.777700768714295   0.624984427607273   1.0000000
B2   B   0.555485693393860   0.277847639939475   0.624802813756185   1.0000000
B2   B   0.888883552476871   0.277767104953749   0.625015486024945   1.0000000
B2   B   0.222219414365785   0.777776373849561   0.124988457166838   1.0000000
B2   B   0.055632564619041   0.277804770061623   0.125015572392727   1.0000000
B2   B   0.388999974548272   0.277999949096551   0.125733107731100   1.0000000
B2   B   0.555528563271712   0.777700768714295   0.125015572392727   1.0000000
B2   B   0.888789746230955   0.777731224175843   0.125001888579832   1.0000000
B2   B   0.722172205442583   0.277804770061623   0.125015572392727   1.0000000
B2   B   0.055602109157493   0.944543587102374   0.624998111420167   1.0000000
B2   B   0.388941477944880   0.944543587102374   0.624998111420167   1.0000000
B2   B   0.222308464266156   0.444362768057543   0.624874588537904   1.0000000
B2   B   0.555333384236785   0.444333358785057   0.624266892268900   1.0000000
B2   B   0.722229242592142   0.944458485184284   0.625012645464837   1.0000000
B2   B   0.888789746230955   0.444391855388448   0.624998111420167   1.0000000
B2   B   0.055602109157493   0.444391855388448   0.125001888579832   1.0000000
B2   B   0.222279040430172   0.944558080860344   0.125003963081635   1.0000000
B2   B   0.555566228379586   0.944449780856458   0.124984513975055   1.0000000
B2   B   0.388999974548272   0.444333358785057   0.125733107731100   1.0000000
B2   B   0.888883552476871   0.944449780856458   0.124984513975055   1.0000000
B2   B   0.722054303791387   0.444362768057543   0.125125411462096   1.0000000
B2   B   0.222279040430172   0.611054292903164   0.624996036918365   1.0000000
B2   B   0.055632564619041   0.111161127890753   0.624984427607273   1.0000000
B2   B   0.555485693393860   0.610971386787720   0.624802813756185   1.0000000
B2   B   0.388970565275786   0.111279029541949   0.624874588537904   1.0000000
B2   B   0.888775252472984   0.611054292903164   0.624996036918365   1.0000000
B2   B   0.055556959483775   0.611113918967550   0.124988457166838   1.0000000
B2   B   0.722229242592142   0.111104090741194   0.625012645464837   1.0000000
B2   B   0.222308464266156   0.111279029541949   0.125125411462096   1.0000000
B2   B   0.388970565275786   0.611024869067180   0.125125411462096   1.0000000
B2   B   0.722054303791387   0.611024869067180   0.125125411462096   1.0000000
B2   B   0.555528563271712   0.111161127890753   0.125015572392727   1.0000000
B2   B   0.388970565275786   0.611024869067180   0.624874588537904   1.0000000
B2   B   0.888874848149045   0.111104090741194   0.124987354535164   1.0000000
B2   B   0.222219414365785   0.777776373849561   0.625011542833162   1.0000000
B2   B   0.055632564619041   0.277804770061623   0.624984427607273   1.0000000
B2   B   0.388999974548272   0.277999949096551   0.624266892268900   1.0000000
B2   B   0.555528563271712   0.777700768714295   0.624984427607273   1.0000000
B2   B   0.888789746230955   0.777731224175843   0.624998111420167   1.0000000
B2   B   0.722172205442583   0.277804770061623   0.624984427607273   1.0000000
B2   B   0.055556959483775   0.777776373849561   0.124988457166838   1.0000000
B2   B   0.388941477944880   0.777731224175843   0.125001888579832   1.0000000
B2   B   0.222361946545616   0.277847639939475   0.125197186243815   1.0000000
B2   B   0.722172205442583   0.777700768714295   0.125015572392727   1.0000000
B2   B   0.555485693393860   0.277847639939475   0.125197186243815   1.0000000
B2   B   0.888883552476871   0.277767104953749   0.124984513975055   1.0000000
B2   B   0.055602109157493   0.444391855388448   0.624998111420167   1.0000000
B2   B   0.222279040430172   0.944558080860344   0.624996036918365   1.0000000
B2   B   0.555566228379586   0.944449780856458   0.625015486024945   1.0000000
B2   B   0.388999974548272   0.444333358785057   0.624266892268900   1.0000000
B2   B   0.888883552476871   0.944449780856458   0.625015486024945   1.0000000
B2   B   0.055602109157493   0.944543587102374   0.125001888579832   1.0000000
B2   B   0.722054303791387   0.444362768057543   0.624874588537904   1.0000000
B2   B   0.388941477944880   0.944543587102374   0.125001888579832   1.0000000
B2   B   0.222308464266156   0.444362768057543   0.125125411462096   1.0000000
B2   B   0.222279040430172   0.611054292903164   0.125003963081635   1.0000000
B2   B   0.555333384236785   0.444333358785057   0.125733107731100   1.0000000
B2   B   0.722229242592142   0.944458485184284   0.124987354535164   1.0000000
B2   B   0.888789746230955   0.444391855388448   0.125001888579832   1.0000000
B2   B   0.055556959483775   0.611113918967550   0.625011542833162   1.0000000
B2   B   0.222308464266156   0.111279029541949   0.624874588537904   1.0000000
B2   B   0.722054303791387   0.611024869067180   0.624874588537904   1.0000000
B2   B   0.555528563271712   0.111161127890753   0.624984427607273   1.0000000
B2   B   0.888874848149045   0.111104090741194   0.625012645464837   1.0000000


