data_1
_audit_creation_method   'vasp2cif'
_cell_length_a    17.52789999999977
_cell_length_b    17.52789999999977
_cell_length_c    15.0
_cell_angle_alpha    90.0
_cell_angle_beta    90.0
_cell_angle_gamma    119.99999999999916

_symmetry_space_group_name_H-M    'P 1'
loop_
_atom_site_label
_atom_site_type_symbol
_atom_site_fract_x
_atom_site_fract_y
_atom_site_fract_z
_atom_site_occupancy
Al2   Al   0.492012917765921   0.507988484151076   0.111248174340443   1.0000000
B2   B   0.905982804626020   0.953022251614151   0.111022340059098   1.0000000
B2   B   0.904711989829653   0.095290031366344   0.111047849007671   1.0000000
B2   B   0.904282834530128   0.238068769875235   0.111053031501391   1.0000000
B2   B   0.904371421991454   0.380919156888425   0.110984575812098   1.0000000
B2   B   0.905423487852864   0.523846795617792   0.111013214822520   1.0000000
B2   B   0.906897127230289   0.667156603162628   0.111074210475313   1.0000000
B2   B   0.907394406494851   0.810802415615247   0.111032054473046   1.0000000
B2   B   0.048285496572320   0.951716524623683   0.111017574387183   1.0000000
B2   B   0.046979769581853   0.094019216569977   0.111022340059098   1.0000000
B2   B   0.046631923876653   0.237196956915489   0.110997615194259   1.0000000
B2   B   0.046966586449882   0.380363934995284   0.111016649140358   1.0000000
B2   B   0.047998934504383   0.523284964628105   0.111006102600282   1.0000000
B2   B   0.048916939858209   0.666182953384919   0.111062388167951   1.0000000
B2   B   0.048989814059516   0.809113370678868   0.111066320795390   1.0000000
B2   B   0.190888650517135   0.951012207136488   0.111066320795390   1.0000000
B2   B   0.189199605580749   0.092607614701153   0.111032054473046   1.0000000
B2   B   0.187768755447967   0.234840297092863   0.110981484550960   1.0000000
B2   B   0.188840075780144   0.379291196843635   0.110995603313037   1.0000000
B2   B   0.190659285791202   0.522672050635172   0.111065112153186   1.0000000
B2   B   0.191694363491683   0.665652969314390   0.111049968709257   1.0000000
B2   B   0.191505794982559   0.808496226213445   0.111030056213391   1.0000000
B2   B   0.333819067812079   0.951085081337794   0.111062388167951   1.0000000
B2   B   0.332845418034370   0.093104893965707   0.111074210475313   1.0000000
B2   B   0.329589334002348   0.232737101667005   0.110994727950008   1.0000000
B2   B   0.327717014326368   0.375978373141607   0.111016784273640   1.0000000
B2   B   0.333382502270315   0.520887014290046   0.111100424053981   1.0000000
B2   B   0.334982411866241   0.665019609330757   0.111111118582339   1.0000000
B2   B   0.334349051882609   0.808307657704321   0.111049968709257   1.0000000
B2   B   0.476717056568894   0.952003086691621   0.111006102600282   1.0000000
B2   B   0.476155225579206   0.094578533343132   0.111013214822520   1.0000000
B2   B   0.475018061594920   0.236606111607983   0.111017565208150   1.0000000
B2   B   0.468496503886510   0.373088425765935   0.111125231785517   1.0000000
B2   B   0.479115006906952   0.666619518926683   0.111100424053981   1.0000000
B2   B   0.477329970561826   0.809342735404802   0.111065112153186   1.0000000
B2   B   0.619638086200726   0.953035434746121   0.111016649140358   1.0000000
B2   B   0.619082864307579   0.095630599204542   0.110984575812098   1.0000000
B2   B   0.618570544118612   0.238554516591075   0.110997617717149   1.0000000
B2   B   0.617967632254600   0.382034388941403   0.111043644233168   1.0000000
B2   B   0.626913595430061   0.531505517310495   0.111125231785517   1.0000000
B2   B   0.624023648054397   0.672285006870630   0.111016784273640   1.0000000
B2   B   0.620710824352368   0.811161945415860   0.110995603313037   1.0000000
B2   B   0.762805064280522   0.953370097319351   0.110997615194259   1.0000000
B2   B   0.761933251320769   0.095719186665869   0.111053031501391   1.0000000
B2   B   0.761533853585241   0.238468167610762   0.111029528493323   1.0000000
B2   B   0.761447504604928   0.381431477077391   0.110997617717149   1.0000000
B2   B   0.763395909588020   0.524983959602085   0.111017565208150   1.0000000
B2   B   0.767264919528998   0.670412687194650   0.110994727950008   1.0000000
B2   B   0.765161724103141   0.812233265748037   0.110981484550960   1.0000000
N2   N   0.953756159637209   0.905367734670809   0.110982443838029   1.0000000
N2   N   0.952388919784420   0.047612482133586   0.111009068243480   1.0000000
N2   N   0.951694380217249   0.190234350419515   0.111011869344206   1.0000000
N2   N   0.951744112377134   0.333148934180483   0.110988288220842   1.0000000
N2   N   0.952606393788501   0.476029054172897   0.110948517328625   1.0000000
N2   N   0.953709790932191   0.618971054739695   0.111034573328338   1.0000000
N2   N   0.954127298900008   0.762204311504625   0.111041334198900   1.0000000
N2   N   0.095969068373644   0.904032333544354   0.111007951785696   1.0000000
N2   N   0.094633667247190   0.046245242280797   0.110982443838029   1.0000000
N2   N   0.093378932379224   0.188591282026761   0.110966117059470   1.0000000
N2   N   0.093843662186505   0.332217679314267   0.110964999920626   1.0000000
N2   N   0.095185223926575   0.475489087039013   0.111004391859188   1.0000000
N2   N   0.096262923917777   0.618438531323623   0.111013046154966   1.0000000
N2   N   0.096396231117160   0.761284734036852   0.111027722826956   1.0000000
N2   N   0.238716667881154   0.903605170800838   0.111027722826956   1.0000000
N2   N   0.237797090413381   0.045874103017998   0.111041334198900   1.0000000
N2   N   0.235310131106664   0.186872438506002   0.110960418307705   1.0000000
N2   N   0.233796589615821   0.329118494400603   0.110945652309431   1.0000000
N2   N   0.237351286338033   0.474538159247713   0.111037309157552   1.0000000
N2   N   0.239204139003782   0.617985921808765   0.111059737950895   1.0000000
N2   N   0.239098306389523   0.760903095528483   0.111011869424616   1.0000000
N2   N   0.381562870594375   0.903738478000222   0.111013046154966   1.0000000
N2   N   0.381030347178304   0.046291610985815   0.111034573328338   1.0000000
N2   N   0.379810950488605   0.188031605899301   0.110989876635050   1.0000000
N2   N   0.375276952745403   0.326780095460385   0.110967065322284   1.0000000
N2   N   0.375428434643762   0.468947131129078   0.111050742491650   1.0000000
N2   N   0.382689775763937   0.617311626154062   0.111110533009786   1.0000000
N2   N   0.382015480109233   0.760797262914224   0.111059737950895   1.0000000
N2   N   0.524512314877983   0.904816177991423   0.111004391859188   1.0000000
N2   N   0.523972347744100   0.047395008129505   0.110948517328625   1.0000000
N2   N   0.523363940520148   0.190010583642394   0.110972259019503   1.0000000
N2   N   0.521807937305808   0.332562416393111   0.111025223953456   1.0000000
N2   N   0.531054270787919   0.624572967274230   0.111050742491650   1.0000000
N2   N   0.525463242669284   0.762650115579973   0.111037309157552   1.0000000
N2   N   0.667783722602729   0.906157739731494   0.110964999920626   1.0000000
N2   N   0.666852467736513   0.048257289540872   0.110988288220842   1.0000000
N2   N   0.666316370244891   0.191050469353290   0.110967810496176   1.0000000
N2   N   0.665693062273653   0.334308339643344   0.110967858846745   1.0000000
N2   N   0.667438985523885   0.478193464611188   0.111025223953456   1.0000000
N2   N   0.673221306456612   0.624724449172596   0.110967065322284   1.0000000
N2   N   0.670882907516393   0.766204812302185   0.110945652309431   1.0000000
N2   N   0.811410119891238   0.906622469538774   0.110966117059470   1.0000000
N2   N   0.809767051498483   0.048307021700756   0.111011869344206   1.0000000
N2   N   0.809157275095586   0.190844126822412   0.111035774793237   1.0000000
N2   N   0.808950932564708   0.333685031672106   0.110967810496176   1.0000000
N2   N   0.809990818275604   0.476637461396849   0.110972259019503   1.0000000
N2   N   0.811969796018697   0.620190451429393   0.110989876635050   1.0000000
N2   N   0.813128963411989   0.764691270811341   0.110960418307705   1.0000000


