data_1
_audit_creation_method   'vasp2cif'
_cell_length_a    17.52789999999977
_cell_length_b    17.52789999999977
_cell_length_c    15.0
_cell_angle_alpha    90.0
_cell_angle_beta    90.0
_cell_angle_gamma    119.99999999999916

_symmetry_space_group_name_H-M    'P 1'
loop_
_atom_site_label
_atom_site_type_symbol
_atom_site_fract_x
_atom_site_fract_y
_atom_site_fract_z
_atom_site_occupancy
B2   B   0.909688732955280   0.954631521631435   0.109931698648573   1.0000000
B2   B   0.908490533660425   0.096057446979000   0.111148437042206   1.0000000
B2   B   0.908118270376687   0.238025548303114   0.111366145286137   1.0000000
B2   B   0.908278898121645   0.380469933471430   0.110597329686643   1.0000000
B2   B   0.908315356285305   0.523246585522365   0.109948205496783   1.0000000
B2   B   0.908372245180181   0.666075308253969   0.109539222927753   1.0000000
B2   B   0.905855448359389   0.808430734789704   0.109625058717247   1.0000000
B2   B   0.051006200697066   0.953881818998233   0.110893360943166   1.0000000
B2   B   0.052102853457291   0.097144413423627   0.111491502248763   1.0000000
B2   B   0.050923918949946   0.238643266728724   0.111522150329898   1.0000000
B2   B   0.050170615713358   0.381048370943270   0.111181233462672   1.0000000
B2   B   0.049867777754456   0.524237117198030   0.110777174721641   1.0000000
B2   B   0.050160845760234   0.667553212135326   0.110200961140963   1.0000000
B2   B   0.050069456261121   0.810691196157671   0.110260524336189   1.0000000
B2   B   0.193882043720926   0.954972637943644   0.110952800945063   1.0000000
B2   B   0.195856498897674   0.099231233898919   0.111474655064756   1.0000000
B2   B   0.194699969966021   0.240347273455073   0.110461097838198   1.0000000
B2   B   0.192219355923618   0.381238103844386   0.108991898844543   1.0000000
B2   B   0.190890662577996   0.524437552652833   0.109422867806678   1.0000000
B2   B   0.191276848324938   0.668063471630897   0.110362369976271   1.0000000
B2   B   0.192803926710732   0.811450261921162   0.110378708099700   1.0000000
B2   B   0.336155439797711   0.954807858183412   0.110526407193229   1.0000000
B2   B   0.337704857798971   0.099085226272030   0.111241787847678   1.0000000
B2   B   0.341758285660380   0.246045207348560   0.111527263999638   1.0000000
B2   B   0.336190581773327   0.383094582281328   0.108734119770444   1.0000000
B2   B   0.331152087419855   0.524427360369882   0.107744945658680   1.0000000
B2   B   0.331451143541038   0.668117776210778   0.109724503689450   1.0000000
B2   B   0.335142572642524   0.811464143378954   0.110625467810351   1.0000000
B2   B   0.478398209119801   0.953397293229296   0.110393800829253   1.0000000
B2   B   0.479419932369649   0.096726322160707   0.110527696113363   1.0000000
B2   B   0.481240485596394   0.241124350164260   0.111994877469593   1.0000000
B2   B   0.490968137214254   0.393230578261099   0.110277898976724   1.0000000
B2   B   0.469242974971986   0.664029300579332   0.113345039926330   1.0000000
B2   B   0.477591503896736   0.809908846134383   0.111267508066229   1.0000000
B2   B   0.621256024805124   0.954523643878313   0.110212307375231   1.0000000
B2   B   0.621857680309211   0.095349942963024   0.109957445133193   1.0000000
B2   B   0.622738390922147   0.236265058706801   0.110408359305432   1.0000000
B2   B   0.624347811371060   0.375772958989913   0.112252064499640   1.0000000
B2   B   0.617074346875002   0.507137237694715   0.111835261939173   1.0000000
B2   B   0.621232572134201   0.814650612324144   0.110721376799927   1.0000000
B2   B   0.765345119618490   0.954085540113137   0.109498915816907   1.0000000
B2   B   0.765062752711384   0.095581412847314   0.110433551395993   1.0000000
B2   B   0.765439839948213   0.237267561206706   0.110057261667399   1.0000000
B2   B   0.766265265163815   0.378992537951867   0.110127280032198   1.0000000
B2   B   0.765861914755277   0.520533902113540   0.110366518553611   1.0000000
B2   B   0.763771698899130   0.660070523037926   0.108965885256845   1.0000000
B2   B   0.767749901090074   0.813778918625255   0.108967716658690   1.0000000
Ga2   Ga   0.616198494027618   0.661111410209377   0.116763859199193   1.0000000
N2   N   0.955304714711397   0.905051163777095   0.110182531246199   1.0000000
N2   N   0.957024367992885   0.049473052573072   0.111085982697761   1.0000000
N2   N   0.955814722193458   0.190846803105781   0.111783380872852   1.0000000
N2   N   0.955449776982544   0.332962657454239   0.111380573711240   1.0000000
N2   N   0.955417631333959   0.475678168914180   0.110462729007115   1.0000000
N2   N   0.955802958568371   0.618791748785798   0.109775979732808   1.0000000
N2   N   0.954857787566668   0.761983151907865   0.109741724962116   1.0000000
N2   N   0.098419624737352   0.906320380667763   0.110815794282548   1.0000000
N2   N   0.099712030759150   0.049757747156337   0.111423608898937   1.0000000
N2   N   0.099174053686352   0.191888302271861   0.111441835328576   1.0000000
N2   N   0.097275549943915   0.333345993741327   0.110941475592426   1.0000000
N2   N   0.096405717911207   0.476175017957825   0.110908380240014   1.0000000
N2   N   0.096738375382327   0.619655306898234   0.110580495444181   1.0000000
N2   N   0.097613034991334   0.763145571423823   0.110206601357450   1.0000000
N2   N   0.240834371630548   0.906879639327463   0.110548976047247   1.0000000
N2   N   0.242154070967879   0.050436357713180   0.111338571616185   1.0000000
N2   N   0.244420015321534   0.194988943924193   0.111291608654984   1.0000000
N2   N   0.240444580387277   0.334525728011963   0.108531863593368   1.0000000
N2   N   0.236813173604618   0.475895286998866   0.107515084307320   1.0000000
N2   N   0.236873751131939   0.619842888738425   0.109793140571097   1.0000000
N2   N   0.239722010404749   0.763619561538847   0.110387688864753   1.0000000
N2   N   0.383160270255923   0.906719360289892   0.110490105733232   1.0000000
N2   N   0.384163614912689   0.049950622125835   0.110687296755325   1.0000000
N2   N   0.385851352172491   0.194262514238128   0.111708343131859   1.0000000
N2   N   0.390901816519305   0.342526677601804   0.111013678094921   1.0000000
N2   N   0.376615918349397   0.476151894247037   0.108966322460376   1.0000000
N2   N   0.375147426635562   0.619749499993804   0.108874616313484   1.0000000
N2   N   0.381871480397224   0.763787117046653   0.110884326762087   1.0000000
N2   N   0.525818196764854   0.905741206856700   0.110663652330417   1.0000000
N2   N   0.526595509714817   0.048462236509868   0.110048360505151   1.0000000
N2   N   0.527688169301003   0.191360937934504   0.110991037330644   1.0000000
N2   N   0.530583646146817   0.335412931422102   0.112635519629596   1.0000000
N2   N   0.466099993389239   0.517880098054051   0.122130455559837   1.0000000
N2   N   0.501769064888139   0.606611976255799   0.121019005776031   1.0000000
N2   N   0.524861162728635   0.762044557319172   0.112231116628641   1.0000000
N2   N   0.669694294330239   0.909091895507748   0.109679713389261   1.0000000
N2   N   0.669802114117659   0.048860303142729   0.110140254882092   1.0000000
N2   N   0.670422517625310   0.189435264469341   0.109709038045711   1.0000000
N2   N   0.672000360940156   0.329663665723342   0.110847100920657   1.0000000
N2   N   0.671817784621097   0.468279156554705   0.111998616264537   1.0000000
N2   N   0.671043732386790   0.601384593622437   0.109018712259558   1.0000000
N2   N   0.675629081370360   0.776805306890273   0.110225160902764   1.0000000
N2   N   0.815450642840774   0.908568986818029   0.108713305374239   1.0000000
N2   N   0.813293729279719   0.048856550578146   0.110390178151713   1.0000000
N2   N   0.813150020953330   0.190268101881009   0.110688392420477   1.0000000
N2   N   0.813774256118397   0.332008905425660   0.109925518673811   1.0000000
N2   N   0.814023115485776   0.474052438765914   0.109882395274257   1.0000000
N2   N   0.814617480952679   0.616431183360157   0.109362917216165   1.0000000
N2   N   0.809863424417145   0.759313428467152   0.109058437843296   1.0000000


