data_1
_audit_creation_method   'vasp2cif'
_cell_length_a    14.93631414619966
_cell_length_b    14.936314146199727
_cell_length_c    13.341276283792837
_cell_angle_alpha    90.0
_cell_angle_beta    90.0
_cell_angle_gamma    119.99999999999984

_symmetry_space_group_name_H-M    'P 1'
loop_
_atom_site_label
_atom_site_type_symbol
_atom_site_fract_x
_atom_site_fract_y
_atom_site_fract_z
_atom_site_occupancy
S2   S   0.490328998432138   0.411831165882733   0.375000000000000   1.0000000
N2   N   0.111106665060515   0.055537100778424   0.125201143876494   1.0000000
N2   N   0.611049348991102   0.555514582404650   0.125435527780835   1.0000000
N2   N   0.444438013335547   0.055537108532866   0.125180838751720   1.0000000
N2   N   0.944430928433389   0.555558245075835   0.125172938496276   1.0000000
N2   N   0.777782918525561   0.055558125929449   0.125100567675471   1.0000000
N2   N   0.111103137984896   0.722218235659112   0.624886566081223   1.0000000
N2   N   0.444438013335547   0.722234238136018   0.624819161248280   1.0000000
N2   N   0.277751156031318   0.222204012099336   0.624880861725315   1.0000000
N2   N   0.777745057020480   0.722185674799638   0.624664235978716   1.0000000
N2   N   0.611088299314330   0.222208371120270   0.624728495404607   1.0000000
N2   N   0.944447643968526   0.222233946450249   0.624873095049862   1.0000000
N2   N   0.277773221412317   0.722228334285056   0.125121578822761   1.0000000
N2   N   0.111101223344747   0.222217278339038   0.125183995021698   1.0000000
N2   N   0.444428929501704   0.222195778269660   0.125113794663326   1.0000000
N2   N   0.611088299314330   0.722213261527388   0.125271504595393   1.0000000
N2   N   0.944430928433389   0.722206016690888   0.125172938496276   1.0000000
N2   N   0.777772892127575   0.222231316234462   0.125143062750463   1.0000000
N2   N   0.111103268318799   0.888870412417127   0.624882436194440   1.0000000
N2   N   0.444442520137736   0.888887926735533   0.624875373236821   1.0000000
N2   N   0.277751156031318   0.388880477265310   0.624880861725315   1.0000000
N2   N   0.611049348991102   0.388868099919780   0.624564472219165   1.0000000
N2   N   0.777772892127575   0.888874909226441   0.624856937249536   1.0000000
N2   N   0.944436966496551   0.388905851265777   0.624851475369270   1.0000000
N2   N   0.111106665060515   0.388902897615420   0.125201143876494   1.0000000
N2   N   0.277773221412317   0.888878220460589   0.125121578822761   1.0000000
N2   N   0.611108413629211   0.888891901127422   0.125111816440061   1.0000000
N2   N   0.444338707246271   0.388836020289799   0.123846311659778   1.0000000
N2   N   0.944436966496551   0.888864448564103   0.125148524630730   1.0000000
N2   N   0.777745057020480   0.388892715554170   0.125335764021284   1.0000000
N2   N   0.277768701403703   0.555567650706393   0.624831628584001   1.0000000
N2   N   0.111106665060515   0.055537100778424   0.624798856123506   1.0000000
N2   N   0.611049348991102   0.555514582404650   0.624564472219165   1.0000000
N2   N   0.444438013335547   0.055537108532866   0.624819161248280   1.0000000
N2   N   0.944430928433389   0.555558245075835   0.624827061503724   1.0000000
N2   N   0.111103268318799   0.555566189235001   0.125117563805560   1.0000000
N2   N   0.777782918525561   0.055558125929449   0.624899432324529   1.0000000
N2   N   0.277768701403703   0.055534384030645   0.125168371415999   1.0000000
N2   N   0.444428929501704   0.555566484565380   0.125113794663326   1.0000000
N2   N   0.777741941715672   0.555537637524504   0.125422155046112   1.0000000
N2   N   0.611108413629211   0.055549845835118   0.125111816440061   1.0000000
N2   N   0.444428929501704   0.555566484565380   0.624886205336674   1.0000000
N2   N   0.944447643968526   0.055547030851613   0.125126904950138   1.0000000
N2   N   0.277773221412317   0.722228334285056   0.624878421177239   1.0000000
N2   N   0.111101223344747   0.222217278339038   0.624816004978302   1.0000000
N2   N   0.444428929501704   0.222195778269660   0.624886205336674   1.0000000
N2   N   0.611088299314330   0.722213261527388   0.624728495404607   1.0000000
N2   N   0.944430928433389   0.722206016690888   0.624827061503724   1.0000000
N2   N   0.777772892127575   0.222231316234462   0.624856937249536   1.0000000
N2   N   0.111103137984896   0.722218235659112   0.125113433918777   1.0000000
N2   N   0.444438013335547   0.722234238136018   0.125180838751720   1.0000000
N2   N   0.277751156031318   0.222204012099336   0.125119138274685   1.0000000
N2   N   0.777745057020480   0.722185674799638   0.125335764021284   1.0000000
N2   N   0.611088299314330   0.222208371120270   0.125271504595393   1.0000000
N2   N   0.944447643968526   0.222233946450249   0.125126904950138   1.0000000
N2   N   0.111106665060515   0.388902897615420   0.624798856123506   1.0000000
N2   N   0.277773221412317   0.888878220460589   0.624878421177239   1.0000000
N2   N   0.611108413629211   0.888891901127422   0.624888183559939   1.0000000
N2   N   0.444338707246271   0.388836020289799   0.626153688340222   1.0000000
N2   N   0.944436966496551   0.888864448564103   0.624851475369270   1.0000000
N2   N   0.111103268318799   0.888870412417127   0.125117563805560   1.0000000
N2   N   0.777745057020480   0.388892715554170   0.624664235978716   1.0000000
N2   N   0.444442520137736   0.888887926735533   0.125124626763179   1.0000000
N2   N   0.277751156031318   0.388880477265310   0.125119138274685   1.0000000
N2   N   0.277768701403703   0.555567650706393   0.125168371415999   1.0000000
N2   N   0.611049348991102   0.388868099919780   0.125435527780835   1.0000000
N2   N   0.777772892127575   0.888874909226441   0.125143062750463   1.0000000
N2   N   0.944436966496551   0.388905851265777   0.125148524630730   1.0000000
N2   N   0.111103268318799   0.555566189235001   0.624882436194440   1.0000000
N2   N   0.277768701403703   0.055534384030645   0.624831628584001   1.0000000
N2   N   0.777741941715672   0.555537637524504   0.624577844953888   1.0000000
N2   N   0.611108413629211   0.055549845835118   0.624888183559939   1.0000000
N2   N   0.944447643968526   0.055547030851613   0.624873095049862   1.0000000
N2   N   0.059046744364882   0.113140378463245   0.375000000000000   1.0000000
N2   N   0.555249857826587   0.616876595652749   0.375000000000000   1.0000000
N2   N   0.388937962894655   0.108491646817483   0.375000000000000   1.0000000
N2   N   0.885566131317642   0.609449732325492   0.375000000000000   1.0000000
N2   N   0.724178678357577   0.111557462196888   0.375000000000000   1.0000000
N2   N   0.055541421112411   0.777772955976489   0.875000000000000   1.0000000
N2   N   0.388881447145043   0.777772188455589   0.875000000000000   1.0000000
N2   N   0.222210554015811   0.277771943674573   0.875000000000000   1.0000000
N2   N   0.722213732549215   0.777772231000426   0.875000000000000   1.0000000
N2   N   0.555545871859913   0.277777516649432   0.875000000000000   1.0000000
N2   N   0.888882905856552   0.277774165349923   0.875000000000000   1.0000000
N2   N   0.221226772414971   0.777280052874154   0.375000000000000   1.0000000
N2   N   0.059046744364882   0.279239699234973   0.375000000000000   1.0000000
N2   N   0.396947332641140   0.279303340047734   0.375000000000000   1.0000000
N2   N   0.556282774674741   0.780635930544053   0.375000000000000   1.0000000
N2   N   0.887776271077371   0.777279434031514   0.375000000000000   1.0000000
N2   N   0.723227267253428   0.276975606051264   0.375000000000000   1.0000000
N2   N   0.055543634901117   0.944441810843507   0.875000000000000   1.0000000
N2   N   0.388881447145043   0.944442592022789   0.875000000000000   1.0000000
N2   N   0.222209498387215   0.444433930808694   0.875000000000000   1.0000000
N2   N   0.555548057985357   0.444440695659343   0.875000000000000   1.0000000
N2   N   0.722214271993417   0.944439808380202   0.875000000000000   1.0000000
N2   N   0.888878806699416   0.444437383995567   0.875000000000000   1.0000000
N2   N   0.056924887208340   0.444721811997444   0.375000000000000   1.0000000
N2   N   0.221857595662257   0.943824419821205   0.375000000000000   1.0000000
N2   N   0.556421121516225   0.944877227424777   0.375000000000000   1.0000000
N2   N   0.396947332641140   0.450977325926741   0.375000000000000   1.0000000
N2   N   0.890978637095752   0.945967367618604   0.375000000000000   1.0000000
N2   N   0.717375880203601   0.442428226038176   0.375000000000000   1.0000000
N2   N   0.222209164083244   0.611100833836766   0.875000000000000   1.0000000
N2   N   0.055545759891665   0.111107144003706   0.875000000000000   1.0000000
N2   N   0.555545871859913   0.611101688543817   0.875000000000000   1.0000000
N2   N   0.388878917955472   0.111110675803059   0.875000000000000   1.0000000
N2   N   0.888876035594163   0.611104684463753   0.875000000000000   1.0000000
N2   N   0.054050293461087   0.610439759520396   0.375000000000000   1.0000000
N2   N   0.722214271993417   0.111107796946551   0.875000000000000   1.0000000
N2   N   0.226562783223728   0.114019838982345   0.375000000000000   1.0000000
N2   N   0.388937962894655   0.613779649410516   0.375000000000000   1.0000000
N2   N   0.717375880203601   0.608280987498762   0.375000000000000   1.0000000
N2   N   0.556282774674741   0.108980177464024   0.375000000000000   1.0000000
N2   N   0.388878917955472   0.611101575485755   0.875000000000000   1.0000000
N2   N   0.891740586737875   0.112536960035609   0.375000000000000   1.0000000
N2   N   0.222209995613125   0.777771664473231   0.875000000000000   1.0000000
N2   N   0.055545759891665   0.277771949221294   0.875000000000000   1.0000000
N2   N   0.388877138144088   0.277772007616539   0.875000000000000   1.0000000
N2   N   0.555547303838056   0.777771035606579   0.875000000000000   1.0000000
N2   N   0.888878806699416   0.777774756037185   0.875000000000000   1.0000000
N2   N   0.722213732549215   0.277774834882125   0.875000000000000   1.0000000
N2   N   0.054050293461087   0.776943867274027   0.375000000000000   1.0000000
N2   N   0.388702733037362   0.778530731840062   0.375000000000000   1.0000000
N2   N   0.227487614546225   0.280410473939780   0.375000000000000   1.0000000
N2   N   0.723227267253428   0.779584994535501   0.375000000000000   1.0000000
N2   N   0.555249857826587   0.271706595507175   0.375000000000000   1.0000000
N2   N   0.890978637095752   0.278344602810484   0.375000000000000   1.0000000
N2   N   0.055543634901117   0.444435157390939   0.875000000000000   1.0000000
N2   N   0.222209164083244   0.944441663579815   0.875000000000000   1.0000000
N2   N   0.555546763527268   0.944440048430298   0.875000000000000   1.0000000
N2   N   0.388877138144088   0.444438463860884   0.875000000000000   1.0000000
N2   N   0.888882905856552   0.944442073839965   0.875000000000000   1.0000000
N2   N   0.056924887208340   0.945536408544225   0.375000000000000   1.0000000
N2   N   0.722209737941448   0.444438905393787   0.875000000000000   1.0000000
N2   N   0.388702733037362   0.943505334530637   0.375000000000000   1.0000000
N2   N   0.226562783223728   0.445876277574719   0.375000000000000   1.0000000
N2   N   0.221857595662257   0.611366509174388   0.375000000000000   1.0000000
N2   N   0.724178678357577   0.945954549494026   0.375000000000000   1.0000000
N2   N   0.887776271077371   0.443830170379192   0.375000000000000   1.0000000
N2   N   0.055541421112411   0.611101798469257   0.875000000000000   1.0000000
N2   N   0.222209498387215   0.111108900911858   0.875000000000000   1.0000000
N2   N   0.722209737941448   0.611104165880995   0.875000000000000   1.0000000
N2   N   0.555547303838056   0.111109601564812   0.875000000000000   1.0000000
N2   N   0.888882359476577   0.111107846404960   0.875000000000000   1.0000000
B2   B   0.114225617892242   0.057468450617383   0.375000000000000   1.0000000
B2   B   0.609227895527189   0.564675932165335   0.375000000000000   1.0000000
B2   B   0.444932697447462   0.053606365365890   0.375000000000000   1.0000000
B2   B   0.942961673556359   0.554916921970678   0.375000000000000   1.0000000
B2   B   0.780520765232224   0.056927049282780   0.375000000000000   1.0000000
B2   B   0.111107407561880   0.722220370447605   0.875000000000000   1.0000000
B2   B   0.444428727273155   0.722227646119236   0.875000000000000   1.0000000
B2   B   0.277739915740273   0.222199533579248   0.875000000000000   1.0000000
B2   B   0.777790669212178   0.722249171461161   0.875000000000000   1.0000000
B2   B   0.611108139061022   0.222197292907515   0.875000000000000   1.0000000
B2   B   0.944434159549904   0.222209594961685   0.875000000000000   1.0000000
B2   B   0.277335230058078   0.722444260703425   0.375000000000000   1.0000000
B2   B   0.115152057806551   0.224242695569940   0.375000000000000   1.0000000
B2   B   0.444860680624607   0.217614859146119   0.375000000000000   1.0000000
B2   B   0.613051548614879   0.728134487591285   0.375000000000000   1.0000000
B2   B   0.942961673556359   0.721378084919018   0.375000000000000   1.0000000
B2   B   0.780134024855235   0.222252786489093   0.375000000000000   1.0000000
B2   B   0.111100624687309   0.888887322811518   0.875000000000000   1.0000000
B2   B   0.444434353082761   0.888883843208045   0.875000000000000   1.0000000
B2   B   0.277739915740273   0.388873715494353   0.875000000000000   1.0000000
B2   B   0.611103090554365   0.388876430710489   0.875000000000000   1.0000000
B2   B   0.777784077046965   0.888912556821362   0.875000000000000   1.0000000
B2   B   0.944446218359216   0.388874827828352   0.875000000000000   1.0000000
B2   B   0.114225617892242   0.390090500608187   0.375000000000000   1.0000000
B2   B   0.277335230058078   0.888224302687981   0.375000000000000   1.0000000
B2   B   0.612981795728939   0.891243549107556   0.375000000000000   1.0000000
B2   B   0.945475381539801   0.889678747374832   0.375000000000000   1.0000000
B2   B   0.776971179003848   0.387461388863932   0.375000000000000   1.0000000
B2   B   0.277750451384398   0.555548696737914   0.875000000000000   1.0000000
B2   B   0.111086785184356   0.055545391587219   0.875000000000000   1.0000000
B2   B   0.611103090554365   0.555559993177206   0.875000000000000   1.0000000
B2   B   0.444428727273155   0.055534414487254   0.875000000000000   1.0000000
B2   B   0.944454811652720   0.555552625542425   0.875000000000000   1.0000000
B2   B   0.110757383080923   0.555677355650862   0.375000000000000   1.0000000
B2   B   0.777777919444926   0.055555626389131   0.875000000000000   1.0000000
B2   B   0.278139007439984   0.054627692570572   0.375000000000000   1.0000000
B2   B   0.444860680624607   0.560579154811824   0.375000000000000   1.0000000
B2   B   0.774806727272637   0.554070030302986   0.375000000000000   1.0000000
B2   B   0.612981795728939   0.055071579954712   0.375000000000000   1.0000000
B2   B   0.444414160824965   0.555553210720100   0.875000000000000   1.0000000
B2   B   0.947541079074259   0.057355906583460   0.375000000000000   1.0000000
B2   B   0.277763144554658   0.722217893028172   0.875000000000000   1.0000000
B2   B   0.111080586911157   0.222206960122243   0.875000000000000   1.0000000
B2   B   0.444414160824965   0.222194283438202   0.875000000000000   1.0000000
B2   B   0.611108139061022   0.722244179486836   0.875000000000000   1.0000000
B2   B   0.944454811652720   0.722235519443632   0.875000000000000   1.0000000
B2   B   0.777784077046965   0.222204853558931   0.875000000000000   1.0000000
B2   B   0.109988759402036   0.721661046367682   0.375000000000000   1.0000000
B2   B   0.444932697447462   0.724659665414907   0.375000000000000   1.0000000
B2   B   0.283509051748076   0.226123873670095   0.375000000000000   1.0000000
B2   B   0.776971179003848   0.722843123473245   0.375000000000000   1.0000000
B2   B   0.613051548614879   0.218250394356924   0.375000000000000   1.0000000
B2   B   0.947541079074259   0.223518505824135   0.375000000000000   1.0000000
B2   B   0.111086785184356   0.388874726930465   0.875000000000000   1.0000000
B2   B   0.277763144554658   0.888878584859816   0.875000000000000   1.0000000
B2   B   0.611109409473851   0.888899799423176   0.875000000000000   1.0000000
B2   B   0.444411465004249   0.388872399168789   0.875000000000000   1.0000000
B2   B   0.944446218359216   0.888904723864193   0.875000000000000   1.0000000
B2   B   0.110757383080923   0.888413360763389   0.375000000000000   1.0000000
B2   B   0.777790669212178   0.388874831084345   0.875000000000000   1.0000000
B2   B   0.444980835988772   0.889157084661050   0.375000000000000   1.0000000
B2   B   0.283509051748076   0.390718511411309   0.375000000000000   1.0000000
B2   B   0.278139007439984   0.556844648202747   0.375000000000000   1.0000000
B2   B   0.609227895527189   0.377885296695184   0.375000000000000   1.0000000
B2   B   0.780134024855235   0.891214571699469   0.375000000000000   1.0000000
B2   B   0.945475381539801   0.389129967498299   0.375000000000000   1.0000000
B2   B   0.111100624687309   0.555546635209120   0.875000000000000   1.0000000
B2   B   0.277750451384398   0.055535087979820   0.875000000000000   1.0000000
B2   B   0.777792256484090   0.555562794908713   0.875000000000000   1.0000000
B2   B   0.611109409473851   0.055542943384003   0.875000000000000   1.0000000
B2   B   0.944434159549904   0.055557897921555   0.875000000000000   1.0000000
B2   B   0.055541856748124   0.111089891249811   0.124934033598919   1.0000000
B2   B   0.555472778054739   0.611167402323439   0.124635947155987   1.0000000
B2   B   0.388815695062900   0.110986180168150   0.124839990911330   1.0000000
B2   B   0.888991501885910   0.611162417609626   0.124879774729764   1.0000000
B2   B   0.722224463927153   0.111081887001990   0.124864609682398   1.0000000
B2   B   0.055611568149035   0.777795657272835   0.625103922206197   1.0000000
B2   B   0.388845171380492   0.777798876460831   0.625093422427268   1.0000000
B2   B   0.222150343684631   0.277741838508983   0.625201998238830   1.0000000
B2   B   0.722243147551680   0.777853339330413   0.625155082896539   1.0000000
B2   B   0.555472778054739   0.277638709064636   0.625364052844014   1.0000000
B2   B   0.888920016310978   0.277784074463298   0.625110687249637   1.0000000
B2   B   0.222221615224002   0.777777474278669   0.124913089890693   1.0000000
B2   B   0.055541856748124   0.277785298831649   0.124934033598919   1.0000000
B2   B   0.388781456534220   0.277702550226857   0.124261742115009   1.0000000
B2   B   0.555511327801464   0.777844754824754   0.124847287836862   1.0000000
B2   B   0.888962521471574   0.777825420530609   0.124890811261149   1.0000000
B2   B   0.722243147551680   0.277723141554602   0.124844917103462   1.0000000
B2   B   0.055574016140817   0.944427918545290   0.625073722789134   1.0000000
B2   B   0.388845171380492   0.944379628252997   0.625093422427268   1.0000000
B2   B   0.222168192928701   0.444467543814539   0.625081705908301   1.0000000
B2   B   0.555376435757325   0.444354884545327   0.625683554615733   1.0000000
B2   B   0.722224463927153   0.944475910258499   0.625135390317602   1.0000000
B2   B   0.888962521471574   0.444470434274301   0.625109188738851   1.0000000
B2   B   0.055574016140817   0.444479430928854   0.124926277210866   1.0000000
B2   B   0.222203298916925   0.944388870582929   0.124911587388967   1.0000000
B2   B   0.555524647848604   0.944428990590965   0.124871936510464   1.0000000
B2   B   0.388781456534220   0.444412239640699   0.124261742115009   1.0000000
B2   B   0.888920016310978   0.944469275181015   0.124889312750362   1.0000000
B2   B   0.722252557192165   0.444434691097677   0.124816071797760   1.0000000
B2   B   0.222203298916925   0.611147761667331   0.625088412611033   1.0000000
B2   B   0.055541856748124   0.111089891249811   0.625065966401081   1.0000000
B2   B   0.555472778054739   0.611167402323439   0.625364052844014   1.0000000
B2   B   0.388815695062900   0.110986180168150   0.625160009088669   1.0000000
B2   B   0.888991501885910   0.611162417609626   0.625120225270237   1.0000000
B2   B   0.055611568149035   0.611149244209536   0.124896077793803   1.0000000
B2   B   0.722224463927153   0.111081887001990   0.625135390317602   1.0000000
B2   B   0.222168192928701   0.111033982447498   0.124918294091698   1.0000000
B2   B   0.388815695062900   0.611162848228093   0.124839990911330   1.0000000
B2   B   0.722252557192165   0.611151199427822   0.124816071797760   1.0000000
B2   B   0.555511327801464   0.110999906310046   0.124847287836862   1.0000000
B2   B   0.388815695062900   0.611162848228093   0.625160009088669   1.0000000
B2   B   0.888900633214036   0.111116983273689   0.124897176249748   1.0000000
B2   B   0.222221615224002   0.777777474278669   0.625086910109306   1.0000000
B2   B   0.055541856748124   0.277785298831649   0.625065966401081   1.0000000
B2   B   0.388781456534220   0.277702550226857   0.625738257884991   1.0000000
B2   B   0.555511327801464   0.777844754824754   0.625152712163138   1.0000000
B2   B   0.888962521471574   0.777825420530609   0.625109188738851   1.0000000
B2   B   0.722243147551680   0.277723141554602   0.625155082896539   1.0000000
B2   B   0.055611568149035   0.777795657272835   0.124896077793803   1.0000000
B2   B   0.388845171380492   0.777798876460831   0.124906577572732   1.0000000
B2   B   0.222150343684631   0.277741838508983   0.124798001761170   1.0000000
B2   B   0.722243147551680   0.777853339330413   0.124844917103462   1.0000000
B2   B   0.555472778054739   0.277638709064636   0.124635947155987   1.0000000
B2   B   0.888920016310978   0.277784074463298   0.124889312750362   1.0000000
B2   B   0.055574016140817   0.444479430928854   0.625073722789134   1.0000000
B2   B   0.222203298916925   0.944388870582929   0.625088412611033   1.0000000
B2   B   0.555524647848604   0.944428990590965   0.625128063489536   1.0000000
B2   B   0.388781456534220   0.444412239640699   0.625738257884991   1.0000000
B2   B   0.888920016310978   0.944469275181015   0.625110687249637   1.0000000
B2   B   0.055574016140817   0.944427918545290   0.124926277210866   1.0000000
B2   B   0.722252557192165   0.444434691097677   0.625183928202240   1.0000000
B2   B   0.388845171380492   0.944379628252997   0.124906577572732   1.0000000
B2   B   0.222168192928701   0.444467543814539   0.124918294091698   1.0000000
B2   B   0.222203298916925   0.611147761667331   0.124911587388967   1.0000000
B2   B   0.555376435757325   0.444354884545327   0.124316445384267   1.0000000
B2   B   0.722224463927153   0.944475910258499   0.124864609682398   1.0000000
B2   B   0.888962521471574   0.444470434274301   0.124890811261149   1.0000000
B2   B   0.055611568149035   0.611149244209536   0.625103922206197   1.0000000
B2   B   0.222168192928701   0.111033982447498   0.625081705908301   1.0000000
B2   B   0.722252557192165   0.611151199427822   0.625183928202240   1.0000000
B2   B   0.555511327801464   0.110999906310046   0.625152712163138   1.0000000
B2   B   0.888900633214036   0.111116983273689   0.625102823750252   1.0000000


