data_1
_audit_creation_method   'vasp2cif'
_cell_length_a    17.52789999999977
_cell_length_b    17.52789999999977
_cell_length_c    15.0
_cell_angle_alpha    90.0
_cell_angle_beta    90.0
_cell_angle_gamma    119.99999999999916

_symmetry_space_group_name_H-M    'P 1'
loop_
_atom_site_label
_atom_site_type_symbol
_atom_site_fract_x
_atom_site_fract_y
_atom_site_fract_z
_atom_site_occupancy
B2   B   0.904032597461953   0.951159557712363   0.110945464447243   1.0000000
B2   B   0.905762477819434   0.094594329486721   0.110805710543238   1.0000000
B2   B   0.906329591096798   0.237669197460190   0.110686028926473   1.0000000
B2   B   0.906125387210495   0.380824838251370   0.110638243496986   1.0000000
B2   B   0.904253224981086   0.523647904430646   0.110599264116480   1.0000000
B2   B   0.902960059751477   0.665988732480782   0.110734772782242   1.0000000
B2   B   0.902270700040027   0.807883847740871   0.110963901598131   1.0000000
B2   B   0.048739735719925   0.954767926439622   0.110777576051019   1.0000000
B2   B   0.049670448806995   0.096992787990103   0.110754488093532   1.0000000
B2   B   0.049623629316434   0.239088812872566   0.110569655970577   1.0000000
B2   B   0.048519313212537   0.381757935870760   0.110340714885795   1.0000000
B2   B   0.047038193627400   0.524848373695396   0.110464608658918   1.0000000
B2   B   0.046346410547404   0.667767985629682   0.110461295420308   1.0000000
B2   B   0.046668063102927   0.810852304113301   0.110497591748825   1.0000000
B2   B   0.191227848205680   0.955659332566464   0.110742452040839   1.0000000
B2   B   0.196259472203434   0.102500363371477   0.111116996563459   1.0000000
B2   B   0.194678243750438   0.242425972983743   0.111542929500734   1.0000000
B2   B   0.191647505467879   0.383274725573281   0.110422267094436   1.0000000
B2   B   0.189459657061262   0.525925069258792   0.110110068763558   1.0000000
B2   B   0.188839274628372   0.668716948772882   0.111072145780443   1.0000000
B2   B   0.189486152721329   0.811843793161125   0.111166453136219   1.0000000
B2   B   0.333490680000251   0.954973514950956   0.111438380733394   1.0000000
B2   B   0.335578066982041   0.099565444586123   0.111087292127797   1.0000000
B2   B   0.347743809346094   0.253701448558196   0.111810806992230   1.0000000
B2   B   0.336086532753539   0.387188202348860   0.113229208242998   1.0000000
B2   B   0.332199505469940   0.528832428639496   0.111466480759951   1.0000000
B2   B   0.331495552274307   0.669936766540543   0.113336521958330   1.0000000
B2   B   0.331928836371645   0.811983696403702   0.113580204564290   1.0000000
B2   B   0.476138851310107   0.952681048802141   0.112204846377937   1.0000000
B2   B   0.477370749156680   0.094660388589568   0.110938526755307   1.0000000
B2   B   0.478346785766670   0.235857246068194   0.110986133696848   1.0000000
B2   B   0.473976442679998   0.809779575342699   0.112098896584006   1.0000000
B2   B   0.618921309577083   0.950612823694525   0.111347552565942   1.0000000
B2   B   0.620268008775571   0.093768303537624   0.110920469602546   1.0000000
B2   B   0.621493012725757   0.236176638143412   0.110652661604030   1.0000000
B2   B   0.623703063988314   0.379214681588755   0.111253444320188   1.0000000
B2   B   0.606414070068178   0.508399661271260   0.112299480939532   1.0000000
B2   B   0.614080758033590   0.658295105700445   0.109688130704500   1.0000000
B2   B   0.616865000228248   0.805369770053094   0.110201945793141   1.0000000
B2   B   0.761328825863397   0.950087594162995   0.111083232786665   1.0000000
B2   B   0.762871586549073   0.093749464822344   0.110886441425079   1.0000000
B2   B   0.763784329209662   0.236868132503351   0.110666611211531   1.0000000
B2   B   0.764279054640960   0.379846803025684   0.110720849583931   1.0000000
B2   B   0.760274563639995   0.521655888788434   0.111389809979780   1.0000000
B2   B   0.756178265323673   0.660317456644432   0.111397942261097   1.0000000
B2   B   0.758153558910243   0.804917861904813   0.111492546179404   1.0000000
C2   C   0.468226914408673   0.516130882718447   0.112369629021835   1.0000000
C2   C   0.494621693852846   0.451654945161980   0.114321767485138   1.0000000
N2   N   0.952128425249025   0.904349755741011   0.110875936191518   1.0000000
N2   N   0.953543431180287   0.047312430834318   0.110713121539510   1.0000000
N2   N   0.954132766953955   0.190323190395898   0.110657781694379   1.0000000
N2   N   0.953674952916776   0.333277923010916   0.110588194521330   1.0000000
N2   N   0.952222611263912   0.476303479552398   0.110551395540451   1.0000000
N2   N   0.951136628137808   0.619080124981545   0.110512724961279   1.0000000
N2   N   0.950876595618444   0.761539349977759   0.110617676065203   1.0000000
N2   N   0.095617071734668   0.906770498220185   0.110572106080251   1.0000000
N2   N   0.099085970963182   0.051553623119305   0.110879694708430   1.0000000
N2   N   0.098503019366834   0.192714528810446   0.110753135498910   1.0000000
N2   N   0.096598926912320   0.334594637596417   0.110221008956864   1.0000000
N2   N   0.094844639442356   0.477329263978902   0.110331156799182   1.0000000
N2   N   0.093872815539773   0.620237333189036   0.110415448749653   1.0000000
N2   N   0.094157819385864   0.763334240239209   0.110481516368964   1.0000000
N2   N   0.238024189533000   0.907369251263103   0.110994767620990   1.0000000
N2   N   0.240514918665960   0.051865249532175   0.110921033741081   1.0000000
N2   N   0.248028927885247   0.200807451389481   0.111572267543614   1.0000000
N2   N   0.240833742914440   0.337237440414866   0.112210321508675   1.0000000
N2   N   0.237426591131623   0.478620409573038   0.109543312299208   1.0000000
N2   N   0.236204214353457   0.621198845872843   0.111069615820645   1.0000000
N2   N   0.236687075840907   0.764002609201230   0.112131003729656   1.0000000
N2   N   0.380550152035397   0.906876996405549   0.112514692205407   1.0000000
N2   N   0.382003268211758   0.050270286401353   0.110972425979870   1.0000000
N2   N   0.384757922964544   0.195810091364842   0.111409136795044   1.0000000
N2   N   0.400159242804047   0.357825470932149   0.112637534197733   1.0000000
N2   N   0.378079432764973   0.480855318127035   0.113290591950090   1.0000000
N2   N   0.377883551612141   0.622451586592408   0.108251776337815   1.0000000
N2   N   0.378693488646963   0.764075412318001   0.114953914385550   1.0000000
N2   N   0.523524932142979   0.905321619135582   0.112377592951365   1.0000000
N2   N   0.524805326030195   0.047286871828025   0.111175539849438   1.0000000
N2   N   0.526437712305019   0.188811962285666   0.110727863702856   1.0000000
N2   N   0.533084589167761   0.326127980651192   0.110459857053623   1.0000000
N2   N   0.520131568342278   0.602172482274818   0.101366341478251   1.0000000
N2   N   0.525260662790637   0.769280267339105   0.107935668667172   1.0000000
N2   N   0.666151580957521   0.902381331157919   0.111027423121162   1.0000000
N2   N   0.667590866076001   0.046082977546908   0.110980260973483   1.0000000
N2   N   0.668756498055481   0.188791665482866   0.110614518355120   1.0000000
N2   N   0.670117619500854   0.330967164468875   0.110710204182346   1.0000000
N2   N   0.664715736673027   0.472465926723944   0.112144330693604   1.0000000
N2   N   0.658298256004599   0.607553251148684   0.111409404143254   1.0000000
N2   N   0.661928245373252   0.754698238130453   0.111219978515022   1.0000000
N2   N   0.807962492620920   0.901463719120303   0.111220035372343   1.0000000
N2   N   0.810240310876905   0.045979193524066   0.110944580310415   1.0000000
N2   N   0.811177002397888   0.189307924313513   0.110746547910818   1.0000000
N2   N   0.811480226991643   0.332320280344347   0.110647440720211   1.0000000
N2   N   0.809227533723773   0.475100833354093   0.110787443717127   1.0000000
N2   N   0.807161956367706   0.616544189887709   0.111147702137966   1.0000000
N2   N   0.805446629728797   0.757106561626737   0.111346189058272   1.0000000


