data_1
_audit_creation_method   'vasp2cif'
_cell_length_a    14.93631414619966
_cell_length_b    14.936314146199727
_cell_length_c    13.341276283792837
_cell_angle_alpha    90.0
_cell_angle_beta    90.0
_cell_angle_gamma    119.99999999999984

_symmetry_space_group_name_H-M    'P 1'
loop_
_atom_site_label
_atom_site_type_symbol
_atom_site_fract_x
_atom_site_fract_y
_atom_site_fract_z
_atom_site_occupancy
O2   O   0.444444444444443   0.388888888888886   0.375000000000000   1.0000000
N2   N   0.111098016273415   0.055562860680750   0.124864458639910   1.0000000
N2   N   0.611109063807164   0.555575863882713   0.124793250906706   1.0000000
N2   N   0.444464844407339   0.055562860680750   0.124864458639910   1.0000000
N2   N   0.944432847696762   0.555543050899903   0.124907099095522   1.0000000
N2   N   0.777777777777779   0.055555555555557   0.124898160507904   1.0000000
N2   N   0.111111111111114   0.722222222222221   0.625087239102444   1.0000000
N2   N   0.444464844407339   0.722235317059917   0.625135541360088   1.0000000
N2   N   0.277757469450625   0.222224269526177   0.625206749093292   1.0000000
N2   N   0.777770472652584   0.722235317059917   0.625135541360088   1.0000000
N2   N   0.611125356317482   0.222207977015861   0.625165144438543   1.0000000
N2   N   0.944426905753463   0.222208446009753   0.625108872641608   1.0000000
N2   N   0.277790282433430   0.722223130130210   0.124907099095522   1.0000000
N2   N   0.111082620698391   0.222207977015861   0.124834855561456   1.0000000
N2   N   0.444466800075555   0.222224269526177   0.124793250906706   1.0000000
N2   N   0.611125356317482   0.722250712634940   0.124834855561456   1.0000000
N2   N   0.944432847696762   0.722223130130210   0.124907099095522   1.0000000
N2   N   0.777781540256294   0.222208446009753   0.124891127358393   1.0000000
N2   N   0.111110203203132   0.888900485636567   0.625092900904478   1.0000000
N2   N   0.444461635387272   0.888897484360302   0.625096677131725   1.0000000
N2   N   0.277757469450625   0.388866533257773   0.625206749093292   1.0000000
N2   N   0.611109063807164   0.388866533257773   0.625206749093292   1.0000000
N2   N   0.777781540256294   0.888906427579865   0.625108872641608   1.0000000
N2   N   0.944435848973026   0.388871697946056   0.625096677131725   1.0000000
N2   N   0.111098016273415   0.388868488925990   0.124864458639910   1.0000000
N2   N   0.277790282433430   0.888900485636567   0.124907099095522   1.0000000
N2   N   0.611124887323589   0.888906427579865   0.124891127358393   1.0000000
N2   N   0.444444444444443   0.388888888888886   0.124463987469710   1.0000000
N2   N   0.944435848973026   0.888897484360302   0.124903322868276   1.0000000
N2   N   0.777770472652584   0.388868488925990   0.124864458639910   1.0000000
N2   N   0.277786850811368   0.555546482521966   0.625133633190655   1.0000000
N2   N   0.111098016273415   0.055562860680750   0.625135541360088   1.0000000
N2   N   0.611109063807164   0.555575863882713   0.625206749093292   1.0000000
N2   N   0.444464844407339   0.055562860680750   0.625135541360088   1.0000000
N2   N   0.944432847696762   0.555543050899903   0.625092900904478   1.0000000
N2   N   0.111110203203132   0.555543050899903   0.124907099095522   1.0000000
N2   N   0.777777777777779   0.055555555555557   0.625101839492097   1.0000000
N2   N   0.277786850811368   0.055573701622740   0.124866366809348   1.0000000
N2   N   0.444466800075555   0.555575863882713   0.124793250906706   1.0000000
N2   N   0.777759631710600   0.555546482521966   0.124866366809348   1.0000000
N2   N   0.611124887323589   0.055551793077045   0.124891127358393   1.0000000
N2   N   0.444466800075555   0.555575863882713   0.625206749093292   1.0000000
N2   N   0.944426905753463   0.055551793077045   0.124891127358393   1.0000000
N2   N   0.277790282433430   0.722223130130210   0.625092900904478   1.0000000
N2   N   0.111082620698391   0.222207977015861   0.625165144438543   1.0000000
N2   N   0.444466800075555   0.222224269526177   0.625206749093292   1.0000000
N2   N   0.611125356317482   0.722250712634940   0.625165144438543   1.0000000
N2   N   0.944432847696762   0.722223130130210   0.625092900904478   1.0000000
N2   N   0.777781540256294   0.222208446009753   0.625108872641608   1.0000000
N2   N   0.111111111111114   0.722222222222221   0.124912760897559   1.0000000
N2   N   0.444464844407339   0.722235317059917   0.124864458639910   1.0000000
N2   N   0.277757469450625   0.222224269526177   0.124793250906706   1.0000000
N2   N   0.777770472652584   0.722235317059917   0.124864458639910   1.0000000
N2   N   0.611125356317482   0.222207977015861   0.124834855561456   1.0000000
N2   N   0.944426905753463   0.222208446009753   0.124891127358393   1.0000000
N2   N   0.111098016273415   0.388868488925990   0.625135541360088   1.0000000
N2   N   0.277790282433430   0.888900485636567   0.625092900904478   1.0000000
N2   N   0.611124887323589   0.888906427579865   0.625108872641608   1.0000000
N2   N   0.444444444444443   0.388888888888886   0.625536012530286   1.0000000
N2   N   0.944435848973026   0.888897484360302   0.625096677131725   1.0000000
N2   N   0.111110203203132   0.888900485636567   0.124907099095522   1.0000000
N2   N   0.777770472652584   0.388868488925990   0.625135541360088   1.0000000
N2   N   0.444461635387272   0.888897484360302   0.124903322868276   1.0000000
N2   N   0.277757469450625   0.388866533257773   0.124793250906706   1.0000000
N2   N   0.277786850811368   0.555546482521966   0.124866366809348   1.0000000
N2   N   0.611109063807164   0.388866533257773   0.124793250906706   1.0000000
N2   N   0.777781540256294   0.888906427579865   0.124891127358393   1.0000000
N2   N   0.944435848973026   0.388871697946056   0.124903322868276   1.0000000
N2   N   0.111110203203132   0.555543050899903   0.625092900904478   1.0000000
N2   N   0.277786850811368   0.055573701622740   0.625133633190655   1.0000000
N2   N   0.777759631710600   0.555546482521966   0.625133633190655   1.0000000
N2   N   0.611124887323589   0.055551793077045   0.625108872641608   1.0000000
N2   N   0.944426905753463   0.055551793077045   0.625108872641608   1.0000000
N2   N   0.054782802684545   0.110547722693260   0.375000000000000   1.0000000
N2   N   0.556135508536764   0.612271017073537   0.375000000000000   1.0000000
N2   N   0.388155991967170   0.107190933202937   0.375000000000000   1.0000000
N2   N   0.890308955760281   0.611821144546807   0.375000000000000   1.0000000
N2   N   0.722346873892899   0.110986459440437   0.375000000000000   1.0000000
N2   N   0.055556553996576   0.777776779336753   0.875000000000000   1.0000000
N2   N   0.388884159016632   0.777777475429417   0.875000000000000   1.0000000
N2   N   0.222221602893947   0.277777468113641   0.875000000000000   1.0000000
N2   N   0.722224711927085   0.777776821944077   0.875000000000000   1.0000000
N2   N   0.555555865219694   0.277777468113641   0.875000000000000   1.0000000
N2   N   0.888892234073341   0.277784468146698   0.875000000000000   1.0000000
N2   N   0.221921270584920   0.777627301959127   0.375000000000000   1.0000000
N2   N   0.054782802684545   0.277568413324617   0.375000000000000   1.0000000
N2   N   0.380925401927381   0.261850803854773   0.375000000000000   1.0000000
N2   N   0.555764920008713   0.778550530648800   0.375000000000000   1.0000000
N2   N   0.890023174949418   0.778635234250046   0.375000000000000   1.0000000
N2   N   0.722785610640064   0.277568413324617   0.375000000000000   1.0000000
N2   N   0.055555857903923   0.944440016920558   0.875000000000000   1.0000000
N2   N   0.388884159016632   0.944440016920558   0.875000000000000   1.0000000
N2   N   0.222220365911292   0.444447647832370   0.875000000000000   1.0000000
N2   N   0.555558395254996   0.444445864294162   0.875000000000000   1.0000000
N2   N   0.722221067886121   0.944442135772248   0.875000000000000   1.0000000
N2   N   0.888893316412770   0.444449174316696   0.875000000000000   1.0000000
N2   N   0.054698099083288   0.444721274032702   0.375000000000000   1.0000000
N2   N   0.221512188786529   0.943024377573047   0.375000000000000   1.0000000
N2   N   0.555684638036445   0.944508985684882   0.375000000000000   1.0000000
N2   N   0.380925401927381   0.452407931405947   0.375000000000000   1.0000000
N2   N   0.888824347648447   0.944508985684882   0.375000000000000   1.0000000
N2   N   0.726142400130404   0.445177341366158   0.375000000000000   1.0000000
N2   N   0.222219311750859   0.611114021582479   0.875000000000000   1.0000000
N2   N   0.055556511389257   0.111108621406247   0.875000000000000   1.0000000
N2   N   0.555555865219694   0.611111730439389   0.875000000000000   1.0000000
N2   N   0.388885685500958   0.111106051412259   0.875000000000000   1.0000000
N2   N   0.888894709831615   0.611114021582479   0.875000000000000   1.0000000
N2   N   0.055706031374209   0.611412062748412   0.375000000000000   1.0000000
N2   N   0.722221067886121   0.111112265447209   0.875000000000000   1.0000000
N2   N   0.219034941235759   0.107190933202937   0.375000000000000   1.0000000
N2   N   0.388155991967170   0.614298392097578   0.375000000000000   1.0000000
N2   N   0.726142400130404   0.614298392097578   0.375000000000000   1.0000000
N2   N   0.555764920008713   0.110547722693260   0.375000000000000   1.0000000
N2   N   0.388885685500958   0.611112967422049   0.875000000000000   1.0000000
N2   N   0.888639585547537   0.110986459440437   0.375000000000000   1.0000000
N2   N   0.222220225340186   0.777776779336753   0.875000000000000   1.0000000
N2   N   0.055556511389257   0.277781223316350   0.875000000000000   1.0000000
N2   N   0.388887469039166   0.277774938078348   0.875000000000000   1.0000000
N2   N   0.555552110016990   0.777776821944077   0.875000000000000   1.0000000
N2   N   0.888893316412770   0.777777475429417   0.875000000000000   1.0000000
N2   N   0.722224711927085   0.277781223316350   0.875000000000000   1.0000000
N2   N   0.055706031374209   0.777627301959127   0.375000000000000   1.0000000
N2   N   0.388612059300626   0.778635234250046   0.375000000000000   1.0000000
N2   N   0.221062316259796   0.277197824796567   0.375000000000000   1.0000000
N2   N   0.722785610640064   0.778550530648800   0.375000000000000   1.0000000
N2   N   0.556135508536764   0.277197824796567   0.375000000000000   1.0000000
N2   N   0.888824347648447   0.277648695296896   0.375000000000000   1.0000000
N2   N   0.055555857903923   0.444449174316696   0.875000000000000   1.0000000
N2   N   0.222219311750859   0.944438623501713   0.875000000000000   1.0000000
N2   N   0.555548865186645   0.944441099259987   0.875000000000000   1.0000000
N2   N   0.388887469039166   0.444445864294162   0.875000000000000   1.0000000
N2   N   0.888892234073341   0.944441099259987   0.875000000000000   1.0000000
N2   N   0.054698099083288   0.943310158383911   0.375000000000000   1.0000000
N2   N   0.722227281921077   0.444447647832370   0.875000000000000   1.0000000
N2   N   0.388612059300626   0.943310158383911   0.375000000000000   1.0000000
N2   N   0.219034941235759   0.445177341366158   0.375000000000000   1.0000000
N2   N   0.221512188786529   0.611821144546807   0.375000000000000   1.0000000
N2   N   0.571482529478566   0.452407931405947   0.375000000000000   1.0000000
N2   N   0.722346873892899   0.944693747785792   0.375000000000000   1.0000000
N2   N   0.890023174949418   0.444721274032702   0.375000000000000   1.0000000
N2   N   0.055556553996576   0.611113107993155   0.875000000000000   1.0000000
N2   N   0.222220365911292   0.111106051412259   0.875000000000000   1.0000000
N2   N   0.722227281921077   0.611112967422049   0.875000000000000   1.0000000
N2   N   0.555552110016990   0.111108621406247   0.875000000000000   1.0000000
N2   N   0.888891197561081   0.111112265447209   0.875000000000000   1.0000000
B2   B   0.109506145086403   0.053924071747674   0.375000000000000   1.0000000
B2   B   0.614620372532416   0.558206742914116   0.375000000000000   1.0000000
B2   B   0.444417926661270   0.053924071747674   0.375000000000000   1.0000000
B2   B   0.944956564708977   0.555769794379619   0.375000000000000   1.0000000
B2   B   0.777777777777779   0.055555555555557   0.375000000000000   1.0000000
B2   B   0.111111111111114   0.722222222222221   0.875000000000000   1.0000000
B2   B   0.444433890695621   0.722182373083644   0.875000000000000   1.0000000
B2   B   0.277828386510765   0.222265773809577   0.875000000000000   1.0000000
B2   B   0.777748482388027   0.722182373083644   0.875000000000000   1.0000000
B2   B   0.611081756125129   0.222251577208218   0.875000000000000   1.0000000
B2   B   0.944470353966734   0.222239501578889   0.875000000000000   1.0000000
B2   B   0.277563538953721   0.722520103662701   0.375000000000000   1.0000000
B2   B   0.110966312811747   0.222149823072540   0.375000000000000   1.0000000
B2   B   0.443586370381690   0.218712960800913   0.375000000000000   1.0000000
B2   B   0.611183510260796   0.722367020521589   0.375000000000000   1.0000000
B2   B   0.944956564708977   0.722520103662701   0.375000000000000   1.0000000
B2   B   0.777816046259475   0.222070699665481   0.375000000000000   1.0000000
B2   B   0.111122745183467   0.888902499887077   0.875000000000000   1.0000000
B2   B   0.444432182691966   0.888882758012649   0.875000000000000   1.0000000
B2   B   0.277828386510765   0.388895946034518   0.875000000000000   1.0000000
B2   B   0.611067559523750   0.388895946034518   0.875000000000000   1.0000000
B2   B   0.777769147612167   0.888862979366595   0.875000000000000   1.0000000
B2   B   0.944450575320680   0.388901150641363   0.875000000000000   1.0000000
B2   B   0.109506145086403   0.388915406672059   0.375000000000000   1.0000000
B2   B   0.277563538953721   0.888376768624352   0.375000000000000   1.0000000
B2   B   0.611262633667852   0.889078679927311   0.375000000000000   1.0000000
B2   B   0.944394523267011   0.888938810066318   0.375000000000000   1.0000000
B2   B   0.779409261585658   0.388915406672059   0.375000000000000   1.0000000
B2   B   0.277797171060111   0.555536162273231   0.875000000000000   1.0000000
B2   B   0.111150960249688   0.055584850945307   0.875000000000000   1.0000000
B2   B   0.611067559523750   0.555504946822576   0.875000000000000   1.0000000
B2   B   0.444433890695621   0.055584850945307   0.875000000000000   1.0000000
B2   B   0.944430833446251   0.555553578629719   0.875000000000000   1.0000000
B2   B   0.110813229670631   0.555769794379619   0.375000000000000   1.0000000
B2   B   0.777777777777779   0.055555555555557   0.875000000000000   1.0000000
B2   B   0.277002510388366   0.054005020776731   0.375000000000000   1.0000000
B2   B   0.443586370381690   0.558206742914116   0.375000000000000   1.0000000
B2   B   0.779328312556603   0.556330822944964   0.375000000000000   1.0000000
B2   B   0.611262633667852   0.055517287073866   0.375000000000000   1.0000000
B2   B   0.444437387298811   0.555504946822576   0.875000000000000   1.0000000
B2   B   0.944254653406017   0.055517287073866   0.375000000000000   1.0000000
B2   B   0.277779754703618   0.722210588149867   0.875000000000000   1.0000000
B2   B   0.111169821083109   0.222251577208218   0.875000000000000   1.0000000
B2   B   0.444437387298811   0.222265773809577   0.875000000000000   1.0000000
B2   B   0.611081756125129   0.722163512250219   0.875000000000000   1.0000000
B2   B   0.944430833446251   0.722210588149867   0.875000000000000   1.0000000
B2   B   0.777769147612167   0.222239501578889   0.875000000000000   1.0000000
B2   B   0.111111111111114   0.722222222222221   0.375000000000000   1.0000000
B2   B   0.444417926661270   0.723827188246940   0.375000000000000   1.0000000
B2   B   0.275126590419226   0.218712960800913   0.375000000000000   1.0000000
B2   B   0.779409261585658   0.723827188246940   0.375000000000000   1.0000000
B2   B   0.611183510260796   0.222149823072540   0.375000000000000   1.0000000
B2   B   0.944254653406017   0.222070699665481   0.375000000000000   1.0000000
B2   B   0.111150960249688   0.388899442637707   0.875000000000000   1.0000000
B2   B   0.277779754703618   0.888902499887077   0.875000000000000   1.0000000
B2   B   0.611093831754442   0.888862979366595   0.875000000000000   1.0000000
B2   B   0.444444444444443   0.388888888888886   0.875000000000000   1.0000000
B2   B   0.944450575320680   0.888882758012649   0.875000000000000   1.0000000
B2   B   0.110813229670631   0.888376768624352   0.375000000000000   1.0000000
B2   B   0.777748482388027   0.388899442637707   0.875000000000000   1.0000000
B2   B   0.444544286799293   0.888938810066318   0.375000000000000   1.0000000
B2   B   0.275126590419226   0.389746962951639   0.375000000000000   1.0000000
B2   B   0.277002510388366   0.556330822944964   0.375000000000000   1.0000000
B2   B   0.614620372532416   0.389746962951639   0.375000000000000   1.0000000
B2   B   0.777816046259475   0.889078679927311   0.375000000000000   1.0000000
B2   B   0.944394523267011   0.388789046534036   0.375000000000000   1.0000000
B2   B   0.111122745183467   0.555553578629719   0.875000000000000   1.0000000
B2   B   0.277797171060111   0.055594342120223   0.875000000000000   1.0000000
B2   B   0.777738991213113   0.555536162273231   0.875000000000000   1.0000000
B2   B   0.611093831754442   0.055564185721174   0.875000000000000   1.0000000
B2   B   0.944470353966734   0.055564185721174   0.875000000000000   1.0000000
B2   B   0.055618554157467   0.111181866707425   0.125112397032611   1.0000000
B2   B   0.555482547448357   0.610965094896717   0.125323104383788   1.0000000
B2   B   0.388963317249511   0.111305744602167   0.125228143476448   1.0000000
B2   B   0.888758769256186   0.611046051294773   0.125105465630670   1.0000000
B2   B   0.722215268891815   0.111118064441527   0.125078031574108   1.0000000
B2   B   0.055536050168714   0.777797283164615   0.624925510166060   1.0000000
B2   B   0.388941573612321   0.777749272343375   0.624909820331950   1.0000000
B2   B   0.222368238436611   0.277850785884977   0.624676895616212   1.0000000
B2   B   0.722151466625907   0.777714779175870   0.624887602967387   1.0000000
B2   B   0.555482547448357   0.277850785884977   0.624676895616212   1.0000000
B2   B   0.888877691650617   0.277755383301229   0.624916474648757   1.0000000
B2   B   0.222261232995908   0.777797283164615   0.125074489833939   1.0000000
B2   B   0.055618554157467   0.277770020783373   0.125112397032611   1.0000000
B2   B   0.388994618530932   0.277989237061868   0.125836369790531   1.0000000
B2   B   0.555563312549968   0.777714779175870   0.125112397032611   1.0000000
B2   B   0.888807698731049   0.777749272343375   0.125090179668053   1.0000000
B2   B   0.722151466625907   0.277770020783373   0.125112397032611   1.0000000
B2   B   0.055584060989961   0.944525634602280   0.624909820331950   1.0000000
B2   B   0.388941573612321   0.944525634602280   0.624909820331950   1.0000000
B2   B   0.222342427352649   0.444370016083818   0.624771856523553   1.0000000
B2   B   0.555344096271465   0.444338714802397   0.624163630209479   1.0000000
B2   B   0.722215268891815   0.944430537783619   0.624921968425893   1.0000000
B2   B   0.888807698731049   0.444391759721008   0.624909820331950   1.0000000
B2   B   0.055584060989961   0.444391759721008   0.125090179668053   1.0000000
B2   B   0.222287282038571   0.944574564077143   0.125105465630670   1.0000000
B2   B   0.555577950032107   0.944455641682711   0.125083525351240   1.0000000
B2   B   0.388994618530932   0.444338714802397   0.125836369790531   1.0000000
B2   B   0.888877691650617   0.944455641682711   0.125083525351240   1.0000000
B2   B   0.722027588731162   0.444370016083818   0.125228143476448   1.0000000
B2   B   0.222287282038571   0.611046051294773   0.624894534369335   1.0000000
B2   B   0.055618554157467   0.111181866707425   0.624887602967387   1.0000000
B2   B   0.555482547448357   0.610965094896717   0.624676895616212   1.0000000
B2   B   0.388963317249511   0.111305744602167   0.624771856523553   1.0000000
B2   B   0.888758769256186   0.611046051294773   0.624894534369335   1.0000000
B2   B   0.055536050168714   0.611072100337431   0.125074489833939   1.0000000
B2   B   0.722215268891815   0.111118064441527   0.624921968425893   1.0000000
B2   B   0.222342427352649   0.111305744602167   0.125228143476448   1.0000000
B2   B   0.388963317249511   0.610990905980692   0.125228143476448   1.0000000
B2   B   0.722027588731162   0.610990905980692   0.125228143476448   1.0000000
B2   B   0.555563312549968   0.111181866707425   0.125112397032611   1.0000000
B2   B   0.388963317249511   0.610990905980692   0.624771856523553   1.0000000
B2   B   0.888902795549710   0.111118064441527   0.125078031574108   1.0000000
B2   B   0.222261232995908   0.777797283164615   0.624925510166060   1.0000000
B2   B   0.055618554157467   0.277770020783373   0.624887602967387   1.0000000
B2   B   0.388994618530932   0.277989237061868   0.624163630209479   1.0000000
B2   B   0.555563312549968   0.777714779175870   0.624887602967387   1.0000000
B2   B   0.888807698731049   0.777749272343375   0.624909820331950   1.0000000
B2   B   0.722151466625907   0.277770020783373   0.624887602967387   1.0000000
B2   B   0.055536050168714   0.777797283164615   0.125074489833939   1.0000000
B2   B   0.388941573612321   0.777749272343375   0.125090179668053   1.0000000
B2   B   0.222368238436611   0.277850785884977   0.125323104383788   1.0000000
B2   B   0.722151466625907   0.777714779175870   0.125112397032611   1.0000000
B2   B   0.555482547448357   0.277850785884977   0.125323104383788   1.0000000
B2   B   0.888877691650617   0.277755383301229   0.125083525351240   1.0000000
B2   B   0.055584060989961   0.444391759721008   0.624909820331950   1.0000000
B2   B   0.222287282038571   0.944574564077143   0.624894534369335   1.0000000
B2   B   0.555577950032107   0.944455641682711   0.624916474648757   1.0000000
B2   B   0.388994618530932   0.444338714802397   0.624163630209479   1.0000000
B2   B   0.888877691650617   0.944455641682711   0.624916474648757   1.0000000
B2   B   0.055584060989961   0.944525634602280   0.125090179668053   1.0000000
B2   B   0.722027588731162   0.444370016083818   0.624771856523553   1.0000000
B2   B   0.388941573612321   0.944525634602280   0.125090179668053   1.0000000
B2   B   0.222342427352649   0.444370016083818   0.125228143476448   1.0000000
B2   B   0.222287282038571   0.611046051294773   0.125105465630670   1.0000000
B2   B   0.555344096271465   0.444338714802397   0.125836369790531   1.0000000
B2   B   0.722215268891815   0.944430537783619   0.125078031574108   1.0000000
B2   B   0.888807698731049   0.444391759721008   0.125090179668053   1.0000000
B2   B   0.055536050168714   0.611072100337431   0.624925510166060   1.0000000
B2   B   0.222342427352649   0.111305744602167   0.624771856523553   1.0000000
B2   B   0.722027588731162   0.610990905980692   0.624771856523553   1.0000000
B2   B   0.555563312549968   0.111181866707425   0.624887602967387   1.0000000
B2   B   0.888902795549710   0.111118064441527   0.624921968425893   1.0000000


