data_1
_audit_creation_method   'vasp2cif'
_cell_length_a    17.52789999999977
_cell_length_b    17.52789999999977
_cell_length_c    15.0
_cell_angle_alpha    90.0
_cell_angle_beta    90.0
_cell_angle_gamma    119.99999999999916

_symmetry_space_group_name_H-M    'P 1'
loop_
_atom_site_label
_atom_site_type_symbol
_atom_site_fract_x
_atom_site_fract_y
_atom_site_fract_z
_atom_site_occupancy
As2   As   0.523242993277783   0.493593086772425   0.111136238845930   1.0000000
B2   B   0.906808646175904   0.953541886936392   0.110993893221199   1.0000000
B2   B   0.903299757208121   0.093653689039232   0.111038974809611   1.0000000
B2   B   0.902382338456700   0.235933319048668   0.111033979198323   1.0000000
B2   B   0.903123743520958   0.379353360190426   0.110989539061380   1.0000000
B2   B   0.906677247732089   0.523792083536435   0.111028212258814   1.0000000
B2   B   0.910490622441390   0.668745438253312   0.111016249682336   1.0000000
B2   B   0.911153694458327   0.813470325412625   0.110992396578768   1.0000000
B2   B   0.050427306755509   0.954245747294040   0.110969273599935   1.0000000
B2   B   0.047773343454161   0.095603425002497   0.110973421353362   1.0000000
B2   B   0.044849437816764   0.236367190457496   0.110967788961786   1.0000000
B2   B   0.044087712349330   0.378989261424848   0.110973780519072   1.0000000
B2   B   0.045704516436447   0.523034864221685   0.110990198868769   1.0000000
B2   B   0.049306209138692   0.667428276813685   0.111018263239558   1.0000000
B2   B   0.051167567968408   0.811382505269952   0.111030841710398   1.0000000
B2   B   0.192550409234518   0.953551621786650   0.111016255966775   1.0000000
B2   B   0.190628028383334   0.095498602987912   0.111028365763616   1.0000000
B2   B   0.189020455169695   0.238378706089027   0.111025739369784   1.0000000
B2   B   0.185381456841787   0.378962653853434   0.110999630268598   1.0000000
B2   B   0.184578958801621   0.522505343382820   0.111000168600493   1.0000000
B2   B   0.188714927609252   0.666519533303769   0.111036324195219   1.0000000
B2   B   0.192088430010971   0.810257237346238   0.110993158452727   1.0000000
B2   B   0.334506193682556   0.952353475106187   0.111028098277350   1.0000000
B2   B   0.334204120951354   0.095724717032706   0.111078672365681   1.0000000
B2   B   0.330384108973683   0.236669531468069   0.111078981687103   1.0000000
B2   B   0.330717208430413   0.383721158742985   0.111088108221348   1.0000000
B2   B   0.321590216492528   0.521911326222678   0.111065919537550   1.0000000
B2   B   0.328107894180507   0.665536110087078   0.111043095816385   1.0000000
B2   B   0.333601879690695   0.808851467810853   0.111032803276882   1.0000000
B2   B   0.476328962904209   0.949415743297833   0.110986970416200   1.0000000
B2   B   0.476579931425004   0.093847650794466   0.111048963464427   1.0000000
B2   B   0.476451088242814   0.237204889545094   0.111058770400986   1.0000000
B2   B   0.468579058230482   0.372259424352449   0.111096149076292   1.0000000
B2   B   0.464008207864412   0.556793841046819   0.111147935240478   1.0000000
B2   B   0.466363112545253   0.652882144567152   0.111113472358162   1.0000000
B2   B   0.475431082369933   0.803402522048323   0.111018556611815   1.0000000
B2   B   0.617956173912716   0.948706775252226   0.111000518925245   1.0000000
B2   B   0.618368277399796   0.092951578090866   0.111012776440878   1.0000000
B2   B   0.618927209797321   0.237148086225661   0.110977383229663   1.0000000
B2   B   0.620275327323147   0.381821899899859   0.111014420817576   1.0000000
B2   B   0.640548230498362   0.535789248836397   0.111096357203228   1.0000000
B2   B   0.632392026185386   0.670652004409561   0.111187399672752   1.0000000
B2   B   0.617319171999804   0.804259298319911   0.111046632476621   1.0000000
B2   B   0.760919934056070   0.950147700181822   0.111039363034659   1.0000000
B2   B   0.760282210487210   0.092740904099223   0.111083300096181   1.0000000
B2   B   0.760579941968250   0.236144554918773   0.111029582670398   1.0000000
B2   B   0.762072763459508   0.380068825699613   0.110978487310627   1.0000000
B2   B   0.768520550430057   0.525213829792213   0.111013170695636   1.0000000
B2   B   0.775488717927785   0.673889930282417   0.111011617203660   1.0000000
B2   B   0.766773553223479   0.811782998263619   0.111003599410243   1.0000000
N2   N   0.956293216536505   0.907693060836001   0.110962780499412   1.0000000
N2   N   0.952826990663583   0.048066234975822   0.110980081281770   1.0000000
N2   N   0.949910969013915   0.188500389819356   0.110997352486032   1.0000000
N2   N   0.949404152462853   0.330970731176743   0.110978872766213   1.0000000
N2   N   0.951497512155069   0.474674480239839   0.110979049728047   1.0000000
N2   N   0.955284777458152   0.619345529036444   0.111019682387105   1.0000000
N2   N   0.957093766395738   0.764197410605439   0.111005666764245   1.0000000
N2   N   0.097859103412681   0.906412326173649   0.110979881626114   1.0000000
N2   N   0.096072276984427   0.048560282898602   0.110959931352116   1.0000000
N2   N   0.093768658354520   0.190171722017410   0.110962821031457   1.0000000
N2   N   0.090658573585828   0.330813929358025   0.110951153654489   1.0000000
N2   N   0.090452549290339   0.474053320008984   0.110968393537118   1.0000000
N2   N   0.094202317064467   0.618463581065800   0.110994456545454   1.0000000
N2   N   0.097351160813675   0.762815135610964   0.110991007470554   1.0000000
N2   N   0.239554071562444   0.905436930609348   0.110990018062164   1.0000000
N2   N   0.239071621136331   0.048376022302259   0.111038606377208   1.0000000
N2   N   0.235871250883924   0.189576943101325   0.111025068900771   1.0000000
N2   N   0.234636398598829   0.333083047242277   0.111020845204007   1.0000000
N2   N   0.228346477189850   0.473046885688705   0.110998084184546   1.0000000
N2   N   0.233103295052144   0.617703983601843   0.111020239892123   1.0000000
N2   N   0.238193157290134   0.761916270606329   0.111000998097569   1.0000000
N2   N   0.381327504313373   0.904060410327846   0.111003164102153   1.0000000
N2   N   0.381578934473903   0.047453181994035   0.111056189659075   1.0000000
N2   N   0.380680915374438   0.190456209866650   0.111060257924309   1.0000000
N2   N   0.374579079292337   0.330059448750742   0.111070765974360   1.0000000
N2   N   0.370930965337870   0.478533865677717   0.111084213011272   1.0000000
N2   N   0.370670814745346   0.616534769422246   0.111036481833478   1.0000000
N2   N   0.379670654613123   0.760640351078705   0.111022775688431   1.0000000
N2   N   0.522971243171958   0.900431195747811   0.110960238073426   1.0000000
N2   N   0.523507025745547   0.045244838478005   0.110988623534973   1.0000000
N2   N   0.523836503452464   0.189055745323289   0.111006060372957   1.0000000
N2   N   0.523872728678796   0.331926215819774   0.111032311621898   1.0000000
N2   N   0.521461399822175   0.753208595841977   0.111047019745586   1.0000000
N2   N   0.665460084060346   0.901125929440959   0.111001331545298   1.0000000
N2   N   0.665367762520349   0.044710271655526   0.111016244917225   1.0000000
N2   N   0.665734804917708   0.188539690520166   0.110986259283471   1.0000000
N2   N   0.666879459280093   0.332613704018816   0.110957551863519   1.0000000
N2   N   0.674901228150053   0.477587042694070   0.111014299289676   1.0000000
N2   N   0.684418135016909   0.628966267682504   0.111073903330503   1.0000000
N2   N   0.672061277232169   0.763665407925601   0.111024839202845   1.0000000
N2   N   0.812110092037558   0.906177812913108   0.110994257118004   1.0000000
N2   N   0.808159144894967   0.045582224312797   0.111053684843181   1.0000000
N2   N   0.807535849347048   0.188073982735369   0.111052456690140   1.0000000
N2   N   0.808321006324061   0.331416419880777   0.110974978707357   1.0000000
N2   N   0.812659859993958   0.475530744643060   0.110993899082824   1.0000000
N2   N   0.817356621867821   0.621267894796363   0.110998904254409   1.0000000
N2   N   0.818033018653746   0.767595342843544   0.110974649694632   1.0000000


