data_1
_audit_creation_method   'vasp2cif'
_cell_length_a    14.93631414619966
_cell_length_b    14.936314146199727
_cell_length_c    13.341276283792837
_cell_angle_alpha    90.0
_cell_angle_beta    90.0
_cell_angle_gamma    119.99999999999984

_symmetry_space_group_name_H-M    'P 1'
loop_
_atom_site_label
_atom_site_type_symbol
_atom_site_fract_x
_atom_site_fract_y
_atom_site_fract_z
_atom_site_occupancy
N2   N   0.428022042066597   0.380677687699963   0.375000000000000   1.0000000
N2   N   0.111086128953417   0.055555529152760   0.125104032107793   1.0000000
N2   N   0.611143222654702   0.555680717921734   0.123959378466834   1.0000000
N2   N   0.444410698735035   0.055570815017452   0.125086336078977   1.0000000
N2   N   0.944414942335799   0.555538679006023   0.125017478212500   1.0000000
N2   N   0.777761660079033   0.055547496706181   0.125002574059695   1.0000000
N2   N   0.111073496320058   0.722203414826693   0.624989645303917   1.0000000
N2   N   0.444410698735035   0.722173217050919   0.624913663921023   1.0000000
N2   N   0.277786146426258   0.222246754415894   0.624445423905962   1.0000000
N2   N   0.777793037169308   0.722255772731176   0.625068820055890   1.0000000
N2   N   0.611124374174052   0.222217776196584   0.625058021248610   1.0000000
N2   N   0.944432004389888   0.222209414327440   0.624974262096780   1.0000000
N2   N   0.277738460862250   0.722191262343211   0.125042674530339   1.0000000
N2   N   0.111095181275238   0.222214257304280   0.125176144034280   1.0000000
N2   N   0.444404238680660   0.222248162776331   0.125303879154244   1.0000000
N2   N   0.611124374174052   0.722239931310803   0.124941978751390   1.0000000
N2   N   0.944414942335799   0.722209596663104   0.125017478212500   1.0000000
N2   N   0.777783062045776   0.222206676380417   0.124999957201470   1.0000000
N2   N   0.111074384161317   0.888878567242354   0.624949459626109   1.0000000
N2   N   0.444401547472442   0.888867440402889   0.624982711312093   1.0000000
N2   N   0.277786146426258   0.388872725343693   0.624445423905962   1.0000000
N2   N   0.611143222654702   0.388795838066296   0.626040621533166   1.0000000
N2   N   0.777783062045776   0.888909718998687   0.625000042798530   1.0000000
N2   N   0.944434628922567   0.388868618783143   0.624981983836408   1.0000000
N2   N   0.111086128953417   0.388863933133986   0.125104032107793   1.0000000
N2   N   0.277738460862250   0.888880531852375   0.125042674530339   1.0000000
N2   N   0.611079998245405   0.888868756123314   0.125057367709431   1.0000000
N2   N   0.444478138103020   0.388905735718174   0.126048053817151   1.0000000
N2   N   0.944434628922567   0.888899343472752   0.125018016163593   1.0000000
N2   N   0.777793037169308   0.388870597771460   0.124931179944110   1.0000000
N2   N   0.277740253473987   0.555511850566850   0.624791284886726   1.0000000
N2   N   0.111086128953417   0.055555529152760   0.624895967892200   1.0000000
N2   N   0.611143222654702   0.555680717921734   0.626040621533166   1.0000000
N2   N   0.444410698735035   0.055570815017452   0.624913663921023   1.0000000
N2   N   0.944414942335799   0.555538679006023   0.624982521787500   1.0000000
N2   N   0.111074384161317   0.555529150252284   0.125050540373891   1.0000000
N2   N   0.777761660079033   0.055547496706181   0.624997425940306   1.0000000
N2   N   0.277740253473987   0.055561736240473   0.125208715113274   1.0000000
N2   N   0.444404238680660   0.555489409237663   0.125303879154244   1.0000000
N2   N   0.777750619763283   0.555541976548309   0.124910614130081   1.0000000
N2   N   0.611079998245405   0.055544575455421   0.125057367709431   1.0000000
N2   N   0.444404238680660   0.555489409237663   0.624696120845756   1.0000000
N2   N   0.944432004389888   0.055555923395784   0.125025737903219   1.0000000
N2   N   0.277738460862250   0.722191262343211   0.624957325469661   1.0000000
N2   N   0.111095181275238   0.222214257304280   0.624823855965720   1.0000000
N2   N   0.444404238680660   0.222248162776331   0.624696120845756   1.0000000
N2   N   0.611124374174052   0.722239931310803   0.625058021248610   1.0000000
N2   N   0.944414942335799   0.722209596663104   0.624982521787500   1.0000000
N2   N   0.777783062045776   0.222206676380417   0.625000042798530   1.0000000
N2   N   0.111073496320058   0.722203414826693   0.125010354696083   1.0000000
N2   N   0.444410698735035   0.722173217050919   0.125086336078977   1.0000000
N2   N   0.277786146426258   0.222246754415894   0.125554576094038   1.0000000
N2   N   0.777793037169308   0.722255772731176   0.124931179944110   1.0000000
N2   N   0.611124374174052   0.222217776196584   0.124941978751390   1.0000000
N2   N   0.944432004389888   0.222209414327440   0.125025737903219   1.0000000
N2   N   0.111086128953417   0.388863933133986   0.624895967892200   1.0000000
N2   N   0.277738460862250   0.888880531852375   0.624957325469661   1.0000000
N2   N   0.611079998245405   0.888868756123314   0.624942632290569   1.0000000
N2   N   0.444478138103020   0.388905735718174   0.623951946182849   1.0000000
N2   N   0.944434628922567   0.888899343472752   0.624981983836408   1.0000000
N2   N   0.111074384161317   0.888878567242354   0.125050540373891   1.0000000
N2   N   0.777793037169308   0.388870597771460   0.625068820055890   1.0000000
N2   N   0.444401547472442   0.888867440402889   0.125017288687906   1.0000000
N2   N   0.277786146426258   0.388872725343693   0.125554576094038   1.0000000
N2   N   0.277740253473987   0.555511850566850   0.125208715113274   1.0000000
N2   N   0.611143222654702   0.388795838066296   0.123959378466834   1.0000000
N2   N   0.777783062045776   0.888909718998687   0.124999957201470   1.0000000
N2   N   0.944434628922567   0.388868618783143   0.125018016163593   1.0000000
N2   N   0.111074384161317   0.555529150252284   0.624949459626109   1.0000000
N2   N   0.277740253473987   0.055561736240473   0.624791284886726   1.0000000
N2   N   0.777750619763283   0.555541976548309   0.625089385869919   1.0000000
N2   N   0.611079998245405   0.055544575455421   0.624942632290569   1.0000000
N2   N   0.944432004389888   0.055555923395784   0.624974262096780   1.0000000
N2   N   0.051028247620498   0.108303542697225   0.375000000000000   1.0000000
N2   N   0.556655081555407   0.596776154036400   0.375000000000000   1.0000000
N2   N   0.390819172365238   0.118553943288181   0.375000000000000   1.0000000
N2   N   0.897168654134307   0.615250993733824   0.375000000000000   1.0000000
N2   N   0.720405480898247   0.111649667872903   0.375000000000000   1.0000000
N2   N   0.055555687731318   0.777779554137723   0.875000000000000   1.0000000
N2   N   0.388884138568589   0.777780479186228   0.875000000000000   1.0000000
N2   N   0.222221715246364   0.277777524289847   0.875000000000000   1.0000000
N2   N   0.722211627528008   0.777775565334986   0.875000000000000   1.0000000
N2   N   0.555536539159173   0.277755348410550   0.875000000000000   1.0000000
N2   N   0.888882695407585   0.277774248740913   0.875000000000000   1.0000000
N2   N   0.226457008952531   0.779895171142933   0.375000000000000   1.0000000
N2   N   0.051028247620498   0.276058038256601   0.375000000000000   1.0000000
N2   N   0.380402597389897   0.281098475056219   0.375000000000000   1.0000000
N2   N   0.556031822706659   0.771955281018841   0.375000000000000   1.0000000
N2   N   0.891479177327748   0.778119950238320   0.375000000000000   1.0000000
N2   N   0.721453527298187   0.281144945513125   0.375000000000000   1.0000000
N2   N   0.055552894977629   0.944445054326099   0.875000000000000   1.0000000
N2   N   0.388884138568589   0.944436992715697   0.875000000000000   1.0000000
N2   N   0.222221585697400   0.444444591358829   0.875000000000000   1.0000000
N2   N   0.555540101094259   0.444436717213794   0.875000000000000   1.0000000
N2   N   0.722209801080186   0.944440104881934   0.875000000000000   1.0000000
N2   N   0.888885568492774   0.444441051203881   0.875000000000000   1.0000000
N2   N   0.055587125758007   0.444653433414420   0.375000000000000   1.0000000
N2   N   0.225418155203990   0.947825620101977   0.375000000000000   1.0000000
N2   N   0.555986610473910   0.944659971903623   0.375000000000000   1.0000000
N2   N   0.380402597389897   0.432637455667013   0.375000000000000   1.0000000
N2   N   0.886519973654465   0.941921242525902   0.375000000000000   1.0000000
N2   N   0.728753892894184   0.450674880449788   0.375000000000000   1.0000000
N2   N   0.222220390363866   0.611111062209670   0.875000000000000   1.0000000
N2   N   0.055551434850303   0.111108939928656   0.875000000000000   1.0000000
N2   N   0.555536539159173   0.611114524081952   0.875000000000000   1.0000000
N2   N   0.388883190121751   0.111099600364189   0.875000000000000   1.0000000
N2   N   0.888886882934503   0.611110108133922   0.875000000000000   1.0000000
N2   N   0.060603437889714   0.613196485873413   0.375000000000000   1.0000000
N2   N   0.722209801080186   0.111103029531588   0.875000000000000   1.0000000
N2   N   0.219487602424935   0.110574636148339   0.375000000000000   1.0000000
N2   N   0.390819172365238   0.605598562410392   0.375000000000000   1.0000000
N2   N   0.728753892894184   0.611412345777732   0.375000000000000   1.0000000
N2   N   0.556031822706659   0.117409875021161   0.375000000000000   1.0000000
N2   N   0.388883190121751   0.611116923090905   0.875000000000000   1.0000000
N2   N   0.885424249751370   0.109378791542357   0.375000000000000   1.0000000
N2   N   0.222221448472410   0.777777390902869   0.875000000000000   1.0000000
N2   N   0.055551434850303   0.277775828254983   0.875000000000000   1.0000000
N2   N   0.388886703774788   0.277774619295813   0.875000000000000   1.0000000
N2   N   0.555542446150238   0.777779437720780   0.875000000000000   1.0000000
N2   N   0.888885568492774   0.777777850622229   0.875000000000000   1.0000000
N2   N   0.722211627528008   0.277769395526350   0.875000000000000   1.0000000
N2   N   0.060603437889714   0.780740285349637   0.375000000000000   1.0000000
N2   N   0.391523215804750   0.776995933346170   0.375000000000000   1.0000000
N2   N   0.213960156192410   0.273646744762873   0.375000000000000   1.0000000
N2   N   0.721453527298187   0.773641915118405   0.375000000000000   1.0000000
N2   N   0.556655081555407   0.293212260852343   0.375000000000000   1.0000000
N2   N   0.886519973654465   0.277932064461905   0.375000000000000   1.0000000
N2   N   0.055552894977629   0.444441173984858   0.875000000000000   1.0000000
N2   N   0.222220390363866   0.944442661487540   0.875000000000000   1.0000000
N2   N   0.555544657560521   0.944438995446921   0.875000000000000   1.0000000
N2   N   0.388886703774788   0.444445417812311   0.875000000000000   1.0000000
N2   N   0.888882695407585   0.944441780000002   0.875000000000000   1.0000000
N2   N   0.055587125758007   0.944267025676915   0.375000000000000   1.0000000
N2   N   0.722213913650660   0.444438942389906   0.875000000000000   1.0000000
N2   N   0.391523215804750   0.947860615791916   0.375000000000000   1.0000000
N2   N   0.219487602424935   0.442246299609932   0.375000000000000   1.0000000
N2   N   0.225418155203990   0.610925868435350   0.375000000000000   1.0000000
N2   N   0.720405480898247   0.942089146358680   0.375000000000000   1.0000000
N2   N   0.891479177327748   0.446692560422763   0.375000000000000   1.0000000
N2   N   0.055555687731318   0.611109466926931   0.875000000000000   1.0000000
N2   N   0.222221585697400   0.111110327671906   0.875000000000000   1.0000000
N2   N   0.722213913650660   0.611108304594097   0.875000000000000   1.0000000
N2   N   0.555542446150238   0.111096341762794   0.875000000000000   1.0000000
N2   N   0.888881647679808   0.111107490506572   0.875000000000000   1.0000000
B2   B   0.108005066403347   0.054013712073550   0.375000000000000   1.0000000
B2   B   0.618462078032940   0.535654235414891   0.375000000000000   1.0000000
B2   B   0.445806023150767   0.060414080879000   0.375000000000000   1.0000000
B2   B   0.949592738440048   0.557816764874087   0.375000000000000   1.0000000
B2   B   0.774388207916420   0.053860770624878   0.375000000000000   1.0000000
B2   B   0.111085661388066   0.722209497360694   0.875000000000000   1.0000000
B2   B   0.444465649866932   0.722245751791854   0.875000000000000   1.0000000
B2   B   0.277811177997539   0.222224116849575   0.875000000000000   1.0000000
B2   B   0.777743169754244   0.722172953585591   0.875000000000000   1.0000000
B2   B   0.611115712840674   0.222240098989445   0.875000000000000   1.0000000
B2   B   0.944395535108196   0.222212182338096   0.875000000000000   1.0000000
B2   B   0.280818131529739   0.722713376504416   0.375000000000000   1.0000000
B2   B   0.103024759574317   0.218179046453823   0.375000000000000   1.0000000
B2   B   0.447891939797611   0.231045537482761   0.375000000000000   1.0000000
B2   B   0.610354707578807   0.711859343084989   0.375000000000000   1.0000000
B2   B   0.949592738440048   0.725109306899296   0.375000000000000   1.0000000
B2   B   0.775058642456453   0.223443663493418   0.375000000000000   1.0000000
B2   B   0.111086168964951   0.888855979317738   0.875000000000000   1.0000000
B2   B   0.444454171381572   0.888893752357454   0.875000000000000   1.0000000
B2   B   0.277811177997539   0.388920394481293   0.875000000000000   1.0000000
B2   B   0.611131024263591   0.388912533882092   0.875000000000000   1.0000000
B2   B   0.777742504716414   0.888846709251400   0.875000000000000   1.0000000
B2   B   0.944398243073968   0.388894310693240   0.875000000000000   1.0000000
B2   B   0.108005066403347   0.387324687663125   0.375000000000000   1.0000000
B2   B   0.280818131529739   0.891438088358651   0.375000000000000   1.0000000
B2   B   0.609830980652328   0.885367831798416   0.375000000000000   1.0000000
B2   B   0.944159498804682   0.888012850017263   0.375000000000000   1.0000000
B2   B   0.779743853175714   0.392765671598900   0.375000000000000   1.0000000
B2   B   0.277795189562142   0.555590023653797   0.875000000000000   1.0000000
B2   B   0.111085705566128   0.055520305705482   0.875000000000000   1.0000000
B2   B   0.611131024263591   0.555551823714835   0.875000000000000   1.0000000
B2   B   0.444465649866932   0.055553231408412   0.875000000000000   1.0000000
B2   B   0.944400525725156   0.555548953311704   0.875000000000000   1.0000000
B2   B   0.113955422810432   0.556127529642499   0.375000000000000   1.0000000
B2   B   0.777740753932312   0.055537043632820   0.875000000000000   1.0000000
B2   B   0.279243108532483   0.058741906131703   0.375000000000000   1.0000000
B2   B   0.447891939797611   0.550179735648187   0.375000000000000   1.0000000
B2   B   0.787260788109577   0.560297060721456   0.375000000000000   1.0000000
B2   B   0.609830980652328   0.057796482187248   0.375000000000000   1.0000000
B2   B   0.444506060845744   0.555601555945063   0.875000000000000   1.0000000
B2   B   0.939847270139562   0.052529171267649   0.375000000000000   1.0000000
B2   B   0.277781781864051   0.722236021381179   0.875000000000000   1.0000000
B2   B   0.111083554058800   0.222208443696064   0.875000000000000   1.0000000
B2   B   0.444506060845744   0.222237838234024   0.875000000000000   1.0000000
B2   B   0.611115712840674   0.722208947184557   0.875000000000000   1.0000000
B2   B   0.944400525725156   0.722184905746779   0.875000000000000   1.0000000
B2   B   0.777742504716414   0.222229128798343   0.875000000000000   1.0000000
B2   B   0.115440400216222   0.724386866774775   0.375000000000000   1.0000000
B2   B   0.445806023150767   0.718725275605103   0.375000000000000   1.0000000
B2   B   0.268137056762018   0.218961524774395   0.375000000000000   1.0000000
B2   B   0.779743853175714   0.720311514910150   0.375000000000000   1.0000000
B2   B   0.610354707578807   0.231828697827147   0.375000000000000   1.0000000
B2   B   0.939847270139562   0.220651432205250   0.375000000000000   1.0000000
B2   B   0.111085705566128   0.388898733193974   0.875000000000000   1.0000000
B2   B   0.277781781864051   0.888879093816191   0.875000000000000   1.0000000
B2   B   0.611102648468539   0.888879720084763   0.875000000000000   1.0000000
B2   B   0.444539177154977   0.388936255244152   0.875000000000000   1.0000000
B2   B   0.944398243073968   0.888837265714056   0.875000000000000   1.0000000
B2   B   0.113955422810432   0.891161226501263   0.375000000000000   1.0000000
B2   B   0.777743169754244   0.388903549501974   0.875000000000000   1.0000000
B2   B   0.445666629342290   0.889499981337806   0.375000000000000   1.0000000
B2   B   0.268137056762018   0.382508865320952   0.375000000000000   1.0000000
B2   B   0.279243108532483   0.553834535734116   0.375000000000000   1.0000000
B2   B   0.618462078032940   0.416141175951378   0.375000000000000   1.0000000
B2   B   0.775058642456453   0.884948312296363   0.375000000000000   1.0000000
B2   B   0.944159498804682   0.389479982120741   0.375000000000000   1.0000000
B2   B   0.111086168964951   0.555563522980542   0.875000000000000   1.0000000
B2   B   0.277795189562142   0.055538499241689   0.875000000000000   1.0000000
B2   B   0.777742519231385   0.555537926282360   0.875000000000000   1.0000000
B2   B   0.611102648468539   0.055556261717098   0.875000000000000   1.0000000
B2   B   0.944395535108196   0.055516686103436   0.875000000000000   1.0000000
B2   B   0.055427091163431   0.111006160870838   0.124931134574413   1.0000000
B2   B   0.555814114852971   0.611094724390813   0.124958464123630   1.0000000
B2   B   0.388937173646847   0.111158595457885   0.125025850891176   1.0000000
B2   B   0.888690502911405   0.611011918122374   0.125192444454686   1.0000000
B2   B   0.722211747833837   0.111142407099943   0.125020129827919   1.0000000
B2   B   0.055394082201047   0.777665892614491   0.624965600231266   1.0000000
B2   B   0.388880322859422   0.777761058869510   0.624998918840238   1.0000000
B2   B   0.222141063810676   0.277737198572002   0.625095973127016   1.0000000
B2   B   0.722243507971614   0.777705070491787   0.624923778688395   1.0000000
B2   B   0.555814114852971   0.278052723795494   0.625041535876370   1.0000000
B2   B   0.888808776584694   0.277788914277749   0.624992438513515   1.0000000
B2   B   0.222127274474937   0.777730303904136   0.124990132727009   1.0000000
B2   B   0.055427091163431   0.277754263625929   0.124931134574413   1.0000000
B2   B   0.389103643856465   0.277923956535682   0.124972138368968   1.0000000
B2   B   0.555633520172588   0.777738793864711   0.125058938549998   1.0000000
B2   B   0.888765830279835   0.777662606158334   0.125118765457776   1.0000000
B2   B   0.722243507971614   0.277871770813156   0.125076221311605   1.0000000
B2   B   0.055423662727267   0.944314863478454   0.625010016327592   1.0000000
B2   B   0.388880322859422   0.944452597323248   0.624998918840238   1.0000000
B2   B   0.222145308563055   0.444473750116636   0.625028252067380   1.0000000
B2   B   0.556010620005314   0.444671976669318   0.623737153961240   1.0000000
B2   B   0.722211747833837   0.944402674067231   0.624979870172081   1.0000000
B2   B   0.888765830279835   0.444436557454838   0.624881234542224   1.0000000
B2   B   0.055423662727267   0.444442132582142   0.124989983672409   1.0000000
B2   B   0.222129873814576   0.944353640191297   0.125001747709679   1.0000000
B2   B   0.555566199275810   0.944449766304565   0.125031592180998   1.0000000
B2   B   0.389103643856465   0.444513020654119   0.124972138368968   1.0000000
B2   B   0.888808776584694   0.944353195640281   0.125007561486485   1.0000000
B2   B   0.722171305137622   0.444465693083593   0.125175981563217   1.0000000
B2   B   0.222129873814576   0.611109566956615   0.624998252290321   1.0000000
B2   B   0.055427091163431   0.111006160870838   0.625068865425587   1.0000000
B2   B   0.555814114852971   0.611094724390813   0.625041535876370   1.0000000
B2   B   0.388937173646847   0.111158595457885   0.624974149108824   1.0000000
B2   B   0.888690502911405   0.611011918122374   0.624807555545313   1.0000000
B2   B   0.055394082201047   0.611061522919899   0.125034399768734   1.0000000
B2   B   0.722211747833837   0.111142407099943   0.624979870172081   1.0000000
B2   B   0.222145308563055   0.111004891779755   0.124971747932620   1.0000000
B2   B   0.388937173646847   0.611111911522306   0.125025850891176   1.0000000
B2   B   0.722171305137622   0.611038945387366   0.125175981563217   1.0000000
B2   B   0.555633520172588   0.111228059641213   0.125058938549998   1.0000000
B2   B   0.388937173646847   0.611111911522306   0.624974149108824   1.0000000
B2   B   0.888809189275744   0.111071261304543   0.124966064730107   1.0000000
B2   B   0.222127274474937   0.777730303904136   0.625009867272991   1.0000000
B2   B   0.055427091163431   0.277754263625929   0.625068865425587   1.0000000
B2   B   0.389103643856465   0.277923956535682   0.625027861631032   1.0000000
B2   B   0.555633520172588   0.777738793864711   0.624941061450002   1.0000000
B2   B   0.888765830279835   0.777662606158334   0.624881234542224   1.0000000
B2   B   0.722243507971614   0.277871770813156   0.624923778688395   1.0000000
B2   B   0.055394082201047   0.777665892614491   0.125034399768734   1.0000000
B2   B   0.388880322859422   0.777761058869510   0.125001081159762   1.0000000
B2   B   0.222141063810676   0.277737198572002   0.124904026872984   1.0000000
B2   B   0.722243507971614   0.777705070491787   0.125076221311605   1.0000000
B2   B   0.555814114852971   0.278052723795494   0.124958464123630   1.0000000
B2   B   0.888808776584694   0.277788914277749   0.125007561486485   1.0000000
B2   B   0.055423662727267   0.444442132582142   0.625010016327592   1.0000000
B2   B   0.222129873814576   0.944353640191297   0.624998252290321   1.0000000
B2   B   0.555566199275810   0.944449766304565   0.624968407818994   1.0000000
B2   B   0.389103643856465   0.444513020654119   0.625027861631032   1.0000000
B2   B   0.888808776584694   0.944353195640281   0.624992438513515   1.0000000
B2   B   0.055423662727267   0.944314863478454   0.124989983672409   1.0000000
B2   B   0.722171305137622   0.444465693083593   0.624824018436783   1.0000000
B2   B   0.388880322859422   0.944452597323248   0.125001081159762   1.0000000
B2   B   0.222145308563055   0.444473750116636   0.124971747932620   1.0000000
B2   B   0.222129873814576   0.611109566956615   0.125001747709679   1.0000000
B2   B   0.556010620005314   0.444671976669318   0.126262846038760   1.0000000
B2   B   0.722211747833837   0.944402674067231   0.125020129827919   1.0000000
B2   B   0.888765830279835   0.444436557454838   0.125118765457776   1.0000000
B2   B   0.055394082201047   0.611061522919899   0.624965600231266   1.0000000
B2   B   0.222145308563055   0.111004891779755   0.625028252067380   1.0000000
B2   B   0.722171305137622   0.611038945387366   0.624824018436783   1.0000000
B2   B   0.555633520172588   0.111228059641213   0.624941061450002   1.0000000
B2   B   0.888809189275744   0.111071261304543   0.625033935269893   1.0000000


