data_1
_audit_creation_method   'vasp2cif'
_cell_length_a    17.52789999999977
_cell_length_b    17.52789999999977
_cell_length_c    15.0
_cell_angle_alpha    90.0
_cell_angle_beta    90.0
_cell_angle_gamma    119.99999999999916

_symmetry_space_group_name_H-M    'P 1'
loop_
_atom_site_label
_atom_site_type_symbol
_atom_site_fract_x
_atom_site_fract_y
_atom_site_fract_z
_atom_site_occupancy
B2   B   0.905435305835345   0.953474609086279   0.111032547904695   1.0000000
B2   B   0.905116437413001   0.095451515062728   0.111014349316516   1.0000000
B2   B   0.905326040981969   0.237746641995955   0.111022937260992   1.0000000
B2   B   0.906341142413447   0.380533677286277   0.111012852704335   1.0000000
B2   B   0.910779207606172   0.524843790236508   0.110847194292547   1.0000000
B2   B   0.910912203604608   0.671897848875102   0.110981142810905   1.0000000
B2   B   0.906410305240899   0.811664929399950   0.111134837148684   1.0000000
B2   B   0.048198929932476   0.953036222492416   0.110985456302563   1.0000000
B2   B   0.047630980055156   0.095368417163504   0.110996403493069   1.0000000
B2   B   0.047622746357508   0.237994571279022   0.110986854280920   1.0000000
B2   B   0.048159623468973   0.380921405324521   0.111011490028100   1.0000000
B2   B   0.050009614254324   0.524318560505765   0.111030404808915   1.0000000
B2   B   0.050044964118536   0.667870229619743   0.111013926522841   1.0000000
B2   B   0.050093341504363   0.811512612424275   0.111024583969249   1.0000000
B2   B   0.190614661811373   0.952131158172111   0.110971994178257   1.0000000
B2   B   0.189736045517063   0.094514685353561   0.111027028420119   1.0000000
B2   B   0.189495705557678   0.237536549667902   0.110884458628901   1.0000000
B2   B   0.189710090704555   0.380898127569644   0.110908338579837   1.0000000
B2   B   0.190569621601208   0.524210199012522   0.111032304699254   1.0000000
B2   B   0.191352808056141   0.667199482477933   0.111060859088343   1.0000000
B2   B   0.191350502253711   0.809862599287602   0.110986809027085   1.0000000
B2   B   0.333051706693428   0.951500374827350   0.111035112956380   1.0000000
B2   B   0.331260804763537   0.092531365593629   0.111068863820911   1.0000000
B2   B   0.330832510498944   0.235738117754498   0.110674576422423   1.0000000
B2   B   0.330698619101476   0.380242666607299   0.110831328420768   1.0000000
B2   B   0.331104970018383   0.524512514013136   0.111109237027465   1.0000000
B2   B   0.333096060963270   0.667244852831120   0.111101696535761   1.0000000
B2   B   0.333436104542919   0.809552691817864   0.111112026771455   1.0000000
B2   B   0.475823920750911   0.951525178802524   0.111057393504378   1.0000000
B2   B   0.475065596275867   0.092838692183039   0.110980141436822   1.0000000
B2   B   0.470795525268189   0.231639992252056   0.111218732418078   1.0000000
B2   B   0.470526275294126   0.375622668620750   0.112604451201242   1.0000000
B2   B   0.469639273612466   0.525784035319712   0.110315262342923   1.0000000
B2   B   0.475173928757948   0.667729369007763   0.111064452367987   1.0000000
B2   B   0.475871779082685   0.809756650204243   0.111064777021690   1.0000000
B2   B   0.618889441024333   0.952274997640711   0.111050481354728   1.0000000
B2   B   0.618710192449862   0.092722970060544   0.110983512347964   1.0000000
B2   B   0.618301475270010   0.231752769281369   0.111243361479937   1.0000000
B2   B   0.608732822024856   0.358746898635726   0.109406477168540   1.0000000
B2   B   0.608437564869963   0.535266294452903   0.111059297282548   1.0000000
B2   B   0.619745687701701   0.672787189633871   0.111228381248179   1.0000000
B2   B   0.618935775694425   0.811774769856899   0.110940744270733   1.0000000
B2   B   0.762269885438912   0.953239628581707   0.111004223579708   1.0000000
B2   B   0.762191966022344   0.094813820750136   0.111014557847313   1.0000000
B2   B   0.762518407550054   0.236584592857844   0.111021536103316   1.0000000
B2   B   0.763571521307506   0.378919325709070   0.111055210737730   1.0000000
B2   B   0.783658386353156   0.534929210851519   0.112057634288800   1.0000000
B2   B   0.763307721635074   0.670653613286340   0.110984466931549   1.0000000
B2   B   0.762804886864781   0.812034645312260   0.111022207667960   1.0000000
N2   N   0.953278261130707   0.906173594778342   0.111029699704631   1.0000000
N2   N   0.952819654756774   0.048224964506687   0.110995020963031   1.0000000
N2   N   0.952776875793121   0.190430379362538   0.110990930064209   1.0000000
N2   N   0.953210949362199   0.332907568895744   0.110993959630935   1.0000000
N2   N   0.955565156621185   0.476001197722262   0.110939304917505   1.0000000
N2   N   0.955352146142028   0.620518061013994   0.110989919681886   1.0000000
N2   N   0.955798155686843   0.765533239263656   0.110971205016406   1.0000000
N2   N   0.096215864562813   0.905847202070268   0.111000180905653   1.0000000
N2   N   0.095159413503158   0.047830661328502   0.111007951930282   1.0000000
N2   N   0.094996283502991   0.190389583617785   0.110975072004428   1.0000000
N2   N   0.095179472513553   0.333119817174862   0.110988381071226   1.0000000
N2   N   0.096158427179318   0.476106028992210   0.111005365833921   1.0000000
N2   N   0.096647627267588   0.619482392925293   0.110983631217987   1.0000000
N2   N   0.096665471245600   0.762842175711091   0.110971003041589   1.0000000
N2   N   0.238272679623057   0.904668576985857   0.110988334895510   1.0000000
N2   N   0.237062905933646   0.046690782654694   0.110959849063597   1.0000000
N2   N   0.236796133059745   0.189695076485826   0.110811977024256   1.0000000
N2   N   0.236877217746540   0.332861462386468   0.110729266773440   1.0000000
N2   N   0.237112760447680   0.476091534876568   0.110995553049653   1.0000000
N2   N   0.238327812160439   0.619275256021120   0.111110410962469   1.0000000
N2   N   0.238611438709648   0.762126451726592   0.111044580159906   1.0000000
N2   N   0.380850655588292   0.904347408059150   0.111047931288131   1.0000000
N2   N   0.380075604054900   0.046261925945256   0.111005857289783   1.0000000
N2   N   0.377313472482536   0.187094853760320   0.111096141027751   1.0000000
N2   N   0.378199546152354   0.332033638221996   0.111019214482775   1.0000000
N2   N   0.377442895263416   0.475815966606294   0.110951213484107   1.0000000
N2   N   0.380242879193090   0.619396104761499   0.111012059533824   1.0000000
N2   N   0.380888284976184   0.762073577058387   0.111100557995521   1.0000000
N2   N   0.523716200681393   0.904565536379606   0.111026778246831   1.0000000
N2   N   0.523469145986607   0.046274881672632   0.111005506254791   1.0000000
N2   N   0.522325588039615   0.187619345712996   0.110964937142465   1.0000000
N2   N   0.516194457443071   0.326329211427206   0.111437379936809   1.0000000
N2   N   0.522708781859977   0.619720616966872   0.110894251879704   1.0000000
N2   N   0.523530068169503   0.762523945876359   0.111042554084004   1.0000000
N2   N   0.667001471175906   0.905983878486643   0.110983888702052   1.0000000
N2   N   0.666953689615382   0.046733629571979   0.110985153991920   1.0000000
N2   N   0.667052156447049   0.187044303729728   0.111085148316566   1.0000000
N2   N   0.667194500182681   0.325701441522062   0.110912376122796   1.0000000
N2   N   0.667663975846872   0.627931443674123   0.111004425184461   1.0000000
N2   N   0.667383081648337   0.766126331944710   0.110994785040978   1.0000000
N2   N   0.810409115918079   0.906460703660447   0.110997938454748   1.0000000
N2   N   0.810066079485940   0.047981115037974   0.110999422681198   1.0000000
N2   N   0.810228096708068   0.189835050418472   0.110990104749126   1.0000000
N2   N   0.810901802488639   0.332123383902658   0.111041535159642   1.0000000
N2   N   0.816267629841100   0.476045381547269   0.111033016333688   1.0000000
N2   N   0.816822918907517   0.626415609268221   0.111309922908846   1.0000000
N2   N   0.811052911936031   0.764846112686938   0.111091488628333   1.0000000
O2   O   0.512675055428357   0.474642427283994   0.111414377301316   1.0000000
Se2   Se   0.665206005704322   0.475632303569656   0.110753517841886   1.0000000


