data_1
_audit_creation_method   'vasp2cif'
_cell_length_a    14.93631414619966
_cell_length_b    14.936314146199727
_cell_length_c    13.341276283792837
_cell_angle_alpha    90.0
_cell_angle_beta    90.0
_cell_angle_gamma    119.99999999999984

_symmetry_space_group_name_H-M    'P 1'
loop_
_atom_site_label
_atom_site_type_symbol
_atom_site_fract_x
_atom_site_fract_y
_atom_site_fract_z
_atom_site_occupancy
Pb2   Pb   0.493042341445093   0.413187837389207   0.375000000000000   1.0000000
N2   N   0.111115464973285   0.055536515567343   0.125111126807696   1.0000000
N2   N   0.611138879679212   0.555610425664722   0.123846525028159   1.0000000
N2   N   0.444453398717455   0.055533851049911   0.125113006109110   1.0000000
N2   N   0.944454835170740   0.555564677440683   0.125222738324407   1.0000000
N2   N   0.777797149635691   0.055565241484510   0.125064877605214   1.0000000
N2   N   0.111119994563173   0.722226663948255   0.624864813631870   1.0000000
N2   N   0.444453398717455   0.722252881000880   0.624886993890890   1.0000000
N2   N   0.277765412679513   0.222196131579753   0.625407812341749   1.0000000
N2   N   0.777783939158743   0.722225294204006   0.624887279280278   1.0000000
N2   N   0.611120674790866   0.222199035917614   0.625083907435489   1.0000000
N2   N   0.944464208724760   0.222238813430304   0.624882595393409   1.0000000
N2   N   0.277785750356959   0.722238097924734   0.125144604041756   1.0000000
N2   N   0.111127489640091   0.222230411486706   0.125070004835035   1.0000000
N2   N   0.444467320756212   0.222208151714773   0.124580738090934   1.0000000
N2   N   0.611120674790866   0.722254972206581   0.124916092564510   1.0000000
N2   N   0.944454835170740   0.722223491063393   0.125222738324407   1.0000000
N2   N   0.777792187323968   0.222228235146747   0.125113292834372   1.0000000
N2   N   0.111119277849998   0.888878504088389   0.624851401159912   1.0000000
N2   N   0.444454754575391   0.888894043954360   0.624872371066736   1.0000000
N2   N   0.277765412679513   0.388902614433082   0.625407812341749   1.0000000
N2   N   0.611138879679212   0.388861787347811   0.626153474971841   1.0000000
N2   N   0.777792187323968   0.888897285510549   0.624886707165628   1.0000000
N2   N   0.944456402472333   0.388906010429566   0.624810094937738   1.0000000
N2   N   0.111115464973285   0.388912282739271   0.125111126807696   1.0000000
N2   N   0.277785750356959   0.888880985765553   0.125144604041756   1.0000000
N2   N   0.611122403604392   0.888907473785434   0.125101952531892   1.0000000
N2   N   0.444420587721746   0.388876960527534   0.124633205096876   1.0000000
N2   N   0.944456402472333   0.888883725376102   0.125189905062262   1.0000000
N2   N   0.777783939158743   0.388891978288066   0.125112720719723   1.0000000
N2   N   0.277787658683182   0.555586514608869   0.624898067712241   1.0000000
N2   N   0.111115464973285   0.055536515567343   0.624888873192304   1.0000000
N2   N   0.611138879679212   0.555610425664722   0.626153474971841   1.0000000
N2   N   0.444453398717455   0.055533851049911   0.624886993890890   1.0000000
N2   N   0.944454835170740   0.555564677440683   0.624777261675593   1.0000000
N2   N   0.111119277849998   0.555574107094937   0.125148598840088   1.0000000
N2   N   0.777797149635691   0.055565241484510   0.624935122394786   1.0000000
N2   N   0.277787658683182   0.055534477407655   0.125101932287759   1.0000000
N2   N   0.444467320756212   0.555592502374768   0.124580738090934   1.0000000
N2   N   0.777783288124488   0.555558310728912   0.124950829384335   1.0000000
N2   N   0.611122403604392   0.055548263152286   0.125101952531892   1.0000000
N2   N   0.444467320756212   0.555592502374768   0.625419261909066   1.0000000
N2   N   0.944464208724760   0.055558728627791   0.125117404606591   1.0000000
N2   N   0.277785750356959   0.722238097924734   0.624855395958244   1.0000000
N2   N   0.111127489640091   0.222230411486706   0.624929995164965   1.0000000
N2   N   0.444467320756212   0.222208151714773   0.625419261909066   1.0000000
N2   N   0.611120674790866   0.722254972206581   0.625083907435489   1.0000000
N2   N   0.944454835170740   0.722223491063393   0.624777261675593   1.0000000
N2   N   0.777792187323968   0.222228235146747   0.624886707165628   1.0000000
N2   N   0.111119994563173   0.722226663948255   0.125135186368130   1.0000000
N2   N   0.444453398717455   0.722252881000880   0.125113006109110   1.0000000
N2   N   0.277765412679513   0.222196131579753   0.124592187658251   1.0000000
N2   N   0.777783939158743   0.722225294204006   0.125112720719723   1.0000000
N2   N   0.611120674790866   0.222199035917614   0.124916092564510   1.0000000
N2   N   0.944464208724760   0.222238813430304   0.125117404606591   1.0000000
N2   N   0.111115464973285   0.388912282739271   0.624888873192304   1.0000000
N2   N   0.277785750356959   0.888880985765553   0.624855395958244   1.0000000
N2   N   0.611122403604392   0.888907473785434   0.624898047468108   1.0000000
N2   N   0.444420587721746   0.388876960527534   0.625366794903124   1.0000000
N2   N   0.944456402472333   0.888883725376102   0.624810094937738   1.0000000
N2   N   0.111119277849998   0.888878504088389   0.125148598840088   1.0000000
N2   N   0.777783939158743   0.388891978288066   0.624887279280278   1.0000000
N2   N   0.444454754575391   0.888894043954360   0.125127628933264   1.0000000
N2   N   0.277765412679513   0.388902614433082   0.124592187658251   1.0000000
N2   N   0.277787658683182   0.555586514608869   0.125101932287759   1.0000000
N2   N   0.611138879679212   0.388861787347811   0.123846525028159   1.0000000
N2   N   0.777792187323968   0.888897285510549   0.125113292834372   1.0000000
N2   N   0.944456402472333   0.388906010429566   0.125189905062262   1.0000000
N2   N   0.111119277849998   0.555574107094937   0.624851401159912   1.0000000
N2   N   0.277787658683182   0.055534477407655   0.624898067712241   1.0000000
N2   N   0.777783288124488   0.555558310728912   0.625049170615665   1.0000000
N2   N   0.611122403604392   0.055548263152286   0.624898047468108   1.0000000
N2   N   0.944464208724760   0.055558728627791   0.624882595393409   1.0000000
N2   N   0.056142235790149   0.111508008883087   0.375000000000000   1.0000000
N2   N   0.553654947155306   0.618182863500323   0.375000000000000   1.0000000
N2   N   0.385981429210675   0.102573379547205   0.375000000000000   1.0000000
N2   N   0.887133156629212   0.610233244981281   0.375000000000000   1.0000000
N2   N   0.722650522940724   0.110547739880545   0.375000000000000   1.0000000
N2   N   0.055556801680661   0.777782091267241   0.875000000000000   1.0000000
N2   N   0.388898556734047   0.777781923767252   0.875000000000000   1.0000000
N2   N   0.222222158238470   0.277777745785907   0.875000000000000   1.0000000
N2   N   0.722231276081330   0.777786053508457   0.875000000000000   1.0000000
N2   N   0.555563196335908   0.277779835485311   0.875000000000000   1.0000000
N2   N   0.888895666850322   0.277778033003521   0.875000000000000   1.0000000
N2   N   0.219550104535883   0.776441718934609   0.375000000000000   1.0000000
N2   N   0.056142235790149   0.277967560240398   0.375000000000000   1.0000000
N2   N   0.384731629387102   0.262167642848390   0.375000000000000   1.0000000
N2   N   0.554732573600262   0.781055559069677   0.375000000000000   1.0000000
N2   N   0.888495443058176   0.778187069429524   0.375000000000000   1.0000000
N2   N   0.722515268640512   0.275977950302649   0.375000000000000   1.0000000
N2   N   0.055555896537843   0.944448417916338   0.875000000000000   1.0000000
N2   N   0.388898556734047   0.944449966300131   0.875000000000000   1.0000000
N2   N   0.222221824012520   0.444442109775818   0.875000000000000   1.0000000
N2   N   0.555560463653200   0.444446898493268   0.875000000000000   1.0000000
N2   N   0.722228547722012   0.944449207373180   0.875000000000000   1.0000000
N2   N   0.888895452357105   0.444442960899754   0.875000000000000   1.0000000
N2   N   0.054324279599123   0.444223941520849   0.375000000000000   1.0000000
N2   N   0.219443927961790   0.941358921149283   0.375000000000000   1.0000000
N2   N   0.554905374988154   0.944119354160745   0.375000000000000   1.0000000
N2   N   0.384731629387102   0.455897319872047   0.375000000000000   1.0000000
N2   N   0.889275431970019   0.945297467985278   0.375000000000000   1.0000000
N2   N   0.723101889877313   0.443819603505706   0.375000000000000   1.0000000
N2   N   0.222225171209430   0.611108132289639   0.875000000000000   1.0000000
N2   N   0.055556395586253   0.111112399597595   0.875000000000000   1.0000000
N2   N   0.555563196335908   0.611116694183933   0.875000000000000   1.0000000
N2   N   0.388896496899805   0.111116368080571   0.875000000000000   1.0000000
N2   N   0.888896063121346   0.611114698227341   0.875000000000000   1.0000000
N2   N   0.053249636228025   0.610259536582719   0.375000000000000   1.0000000
N2   N   0.722228547722012   0.111112673682161   0.875000000000000   1.0000000
N2   N   0.220215228826446   0.107944662829328   0.375000000000000   1.0000000
N2   N   0.385981429210675   0.616741382996814   0.375000000000000   1.0000000
N2   N   0.723101889877313   0.612615619704943   0.375000000000000   1.0000000
N2   N   0.554732573600262   0.107010347863920   0.375000000000000   1.0000000
N2   N   0.388896496899805   0.611113462152569   0.875000000000000   1.0000000
N2   N   0.889600365447005   0.111466849390174   0.375000000000000   1.0000000
N2   N   0.222225744407374   0.777779538870355   0.875000000000000   1.0000000
N2   N   0.055556395586253   0.277777329321994   0.875000000000000   1.0000000
N2   N   0.388897009595414   0.277783012511240   0.875000000000000   1.0000000
N2   N   0.555564139540658   0.777783914744508   0.875000000000000   1.0000000
N2   N   0.888895452357105   0.777785824790686   0.875000000000000   1.0000000
N2   N   0.722231276081330   0.277778555906215   0.875000000000000   1.0000000
N2   N   0.053249636228025   0.776323432978648   0.375000000000000   1.0000000
N2   N   0.386747735947231   0.778808029285662   0.375000000000000   1.0000000
N2   N   0.223909976855791   0.278621655094567   0.375000000000000   1.0000000
N2   N   0.722515268640512   0.779870651671206   0.375000000000000   1.0000000
N2   N   0.553654947155306   0.268805416988311   0.375000000000000   1.0000000
N2   N   0.889275431970019   0.277311297318070   0.375000000000000   1.0000000
N2   N   0.055555896537843   0.444440811954833   0.875000000000000   1.0000000
N2   N   0.222225171209430   0.944450372253119   0.875000000000000   1.0000000
N2   N   0.555563658924554   0.944448496128945   0.875000000000000   1.0000000
N2   N   0.388897009595414   0.444447330417509   0.875000000000000   1.0000000
N2   N   0.888895666850322   0.944450967180144   0.875000000000000   1.0000000
N2   N   0.054324279599123   0.943433671411603   0.375000000000000   1.0000000
N2   N   0.722232533390841   0.444448502879372   0.875000000000000   1.0000000
N2   N   0.386747735947231   0.941273039994912   0.375000000000000   1.0000000
N2   N   0.220215228826446   0.445603899330454   0.375000000000000   1.0000000
N2   N   0.219443927961790   0.611418340145842   0.375000000000000   1.0000000
N2   N   0.722650522940724   0.945436116393514   0.375000000000000   1.0000000
N2   N   0.888495443058176   0.443641706961995   0.375000000000000   1.0000000
N2   N   0.055556801680661   0.611108043746756   0.875000000000000   1.0000000
N2   N   0.222221824012520   0.111113047570037   0.875000000000000   1.0000000
N2   N   0.722232533390841   0.611117363844804   0.875000000000000   1.0000000
N2   N   0.555564139540658   0.111113558129486   0.875000000000000   1.0000000
N2   N   0.888894475197578   0.111113904265457   0.875000000000000   1.0000000
B2   B   0.109844563716274   0.054237234224950   0.375000000000000   1.0000000
B2   B   0.618179294425597   0.575903396102633   0.375000000000000   1.0000000
B2   B   0.443264068143025   0.050362464799760   0.375000000000000   1.0000000
B2   B   0.943083135065857   0.554711377584095   0.375000000000000   1.0000000
B2   B   0.778815165131828   0.056074249232582   0.375000000000000   1.0000000
B2   B   0.111125148202136   0.722229240767736   0.875000000000000   1.0000000
B2   B   0.444443671479964   0.722248311183431   0.875000000000000   1.0000000
B2   B   0.277713231167394   0.222181719101642   0.875000000000000   1.0000000
B2   B   0.777825440353204   0.722288304528554   0.875000000000000   1.0000000
B2   B   0.611133982903902   0.222182494544413   0.875000000000000   1.0000000
B2   B   0.944450793536098   0.222212359128589   0.875000000000000   1.0000000
B2   B   0.275531665340788   0.722108719534156   0.375000000000000   1.0000000
B2   B   0.112267999843783   0.222800666588552   0.375000000000000   1.0000000
B2   B   0.440871157621482   0.210349597215630   0.375000000000000   1.0000000
B2   B   0.611870361390968   0.729051703588490   0.375000000000000   1.0000000
B2   B   0.943083135065857   0.721705090815105   0.375000000000000   1.0000000
B2   B   0.778751854767500   0.221060419255284   0.375000000000000   1.0000000
B2   B   0.111115970299498   0.888901228556927   0.875000000000000   1.0000000
B2   B   0.444451990280154   0.888892661806745   0.875000000000000   1.0000000
B2   B   0.277713231167394   0.388864845399081   0.875000000000000   1.0000000
B2   B   0.611137578222050   0.388867196861187   0.875000000000000   1.0000000
B2   B   0.777809383942422   0.888941442111950   0.875000000000000   1.0000000
B2   B   0.944467083516884   0.388872028398075   0.875000000000000   1.0000000
B2   B   0.109844563716274   0.388940662824652   0.375000000000000   1.0000000
B2   B   0.275531665340788   0.886756279139961   0.375000000000000   1.0000000
B2   B   0.611664098309645   0.891078894607397   0.375000000000000   1.0000000
B2   B   0.944140485314477   0.889423659407486   0.375000000000000   1.0000000
B2   B   0.779098650155101   0.386829723146470   0.375000000000000   1.0000000
B2   B   0.277752091930948   0.555552242404383   0.875000000000000   1.0000000
B2   B   0.111089471455544   0.055550421276555   0.875000000000000   1.0000000
B2   B   0.611137578222050   0.555603714694198   0.875000000000000   1.0000000
B2   B   0.444443671479964   0.055528693629869   0.875000000000000   1.0000000
B2   B   0.944484087854581   0.555559544482113   0.875000000000000   1.0000000
B2   B   0.108900141933161   0.555103110700601   0.375000000000000   1.0000000
B2   B   0.777800348280208   0.055566840806772   0.875000000000000   1.0000000
B2   B   0.274910355060134   0.051390815983233   0.375000000000000   1.0000000
B2   B   0.440871157621482   0.563854893739188   0.375000000000000   1.0000000
B2   B   0.777649201945856   0.555491267639592   0.375000000000000   1.0000000
B2   B   0.611664098309645   0.053918537035576   0.375000000000000   1.0000000
B2   B   0.444422111876158   0.555582815177386   0.875000000000000   1.0000000
B2   B   0.945298497367302   0.056406469816192   0.375000000000000   1.0000000
B2   B   0.277776775665340   0.722225446987279   0.875000000000000   1.0000000
B2   B   0.111074398043176   0.222203865688252   0.875000000000000   1.0000000
B2   B   0.444422111876158   0.222172630032101   0.875000000000000   1.0000000
B2   B   0.611133982903902   0.722284821692818   0.875000000000000   1.0000000
B2   B   0.944484087854581   0.722257876705797   0.875000000000000   1.0000000
B2   B   0.777809383942422   0.222201275163800   0.875000000000000   1.0000000
B2   B   0.108861555208883   0.721097444271106   0.375000000000000   1.0000000
B2   B   0.443264068143025   0.726234936676601   0.375000000000000   1.0000000
B2   B   0.276004537533313   0.218888999881331   0.375000000000000   1.0000000
B2   B   0.779098650155101   0.725602260341952   0.375000000000000   1.0000000
B2   B   0.611870361390968   0.216151991135813   0.375000000000000   1.0000000
B2   B   0.945298497367302   0.222225360884438   0.375000000000000   1.0000000
B2   B   0.111089471455544   0.388872383512325   0.875000000000000   1.0000000
B2   B   0.277776775665340   0.888884662011383   0.875000000000000   1.0000000
B2   B   0.611130458999030   0.888919717930843   0.875000000000000   1.0000000
B2   B   0.444401552602247   0.388867442967788   0.875000000000000   1.0000000
B2   B   0.944467083516884   0.888928388452138   0.875000000000000   1.0000000
B2   B   0.108900141933161   0.887130364565888   0.375000000000000   1.0000000
B2   B   0.777825440353204   0.388870469157970   0.875000000000000   1.0000000
B2   B   0.443557292408720   0.888445312871028   0.375000000000000   1.0000000
B2   B   0.276004537533313   0.390448870985310   0.375000000000000   1.0000000
B2   B   0.274910355060134   0.556852872410236   0.375000000000000   1.0000000
B2   B   0.618179294425597   0.375609231656293   0.375000000000000   1.0000000
B2   B   0.778751854767500   0.891024768845544   0.375000000000000   1.0000000
B2   B   0.944140485314477   0.388050159240319   0.375000000000000   1.0000000
B2   B   0.111115970299498   0.555548075075900   0.875000000000000   1.0000000
B2   B   0.277752091930948   0.055533182859907   0.875000000000000   1.0000000
B2   B   0.777834412456129   0.555583872894729   0.875000000000000   1.0000000
B2   B   0.611130458999030   0.055544074401515   0.875000000000000   1.0000000
B2   B   0.944450793536098   0.055571767740844   0.875000000000000   1.0000000
B2   B   0.055558382511157   0.111100924052292   0.124966900661836   1.0000000
B2   B   0.555514395771270   0.611312550767495   0.123811033747969   1.0000000
B2   B   0.388779584573054   0.110888273233576   0.124721010474882   1.0000000
B2   B   0.889086282595539   0.611209807964437   0.124816144503537   1.0000000
B2   B   0.722244370302452   0.111073877389077   0.124885472800124   1.0000000
B2   B   0.055656980437956   0.777825103343613   0.625041457173481   1.0000000
B2   B   0.388847681603488   0.777818273510930   0.625051539023305   1.0000000
B2   B   0.222112706597754   0.277723019965545   0.625409837848651   1.0000000
B2   B   0.722289866291728   0.777928266260182   0.625324593268670   1.0000000
B2   B   0.555514395771270   0.277535178337111   0.626188966252031   1.0000000
B2   B   0.888953546405009   0.277775597144265   0.625054195828293   1.0000000
B2   B   0.222239199739774   0.777786266536555   0.124961118926353   1.0000000
B2   B   0.055558382511157   0.277790791792201   0.124966900661836   1.0000000
B2   B   0.388597954351940   0.277394084523069   0.124076674098238   1.0000000
B2   B   0.555518388651264   0.777896053788501   0.124790416856844   1.0000000
B2   B   0.889036945151654   0.777893341871711   0.124901862755423   1.0000000
B2   B   0.722289866291728   0.277694933364882   0.124675406731330   1.0000000
B2   B   0.055599027733149   0.944452094032175   0.625013500126508   1.0000000
B2   B   0.388847681603488   0.944362741425894   0.625051539023305   1.0000000
B2   B   0.222136729025723   0.444492508828386   0.625193705856335   1.0000000
B2   B   0.555704388730675   0.444518861032002   0.626775884650415   1.0000000
B2   B   0.722244370302452   0.944503826246710   0.625114527199876   1.0000000
B2   B   0.889036945151654   0.444476936613279   0.625098137244577   1.0000000
B2   B   0.055599027733149   0.444480267034303   0.124986499873492   1.0000000
B2   B   0.222210926315255   0.944380445731824   0.124974409914145   1.0000000
B2   B   0.555533931449867   0.944433632391598   0.124922622738217   1.0000000
B2   B   0.388597954351940   0.444537203162207   0.124076674098238   1.0000000
B2   B   0.888953546405009   0.944511282594080   0.124945804171714   1.0000000
B2   B   0.722426772010838   0.444477091182883   0.124011231868560   1.0000000
B2   B   0.222210926315255   0.611163813916767   0.625025590085855   1.0000000
B2   B   0.055558382511157   0.111100924052292   0.625033099338157   1.0000000
B2   B   0.555514395771270   0.611312550767495   0.626188966252031   1.0000000
B2   B   0.388779584573054   0.110888273233576   0.625278989525118   1.0000000
B2   B   0.889086282595539   0.611209807964437   0.625183855496463   1.0000000
B2   B   0.055656980437956   0.611165210427679   0.124958542826519   1.0000000
B2   B   0.722244370302452   0.111073877389077   0.625114527199876   1.0000000
B2   B   0.222136729025723   0.110977553530672   0.124806294143665   1.0000000
B2   B   0.388779584573054   0.611224644672821   0.124721010474882   1.0000000
B2   B   0.722426772010838   0.611283014161298   0.124011231868560   1.0000000
B2   B   0.555518388651264   0.110955668196098   0.124790416856844   1.0000000
B2   B   0.388779584573054   0.611224644672821   0.625278989525118   1.0000000
B2   B   0.888926098694895   0.111129716014115   0.124937444383028   1.0000000
B2   B   0.222239199739774   0.777786266536555   0.625038881073654   1.0000000
B2   B   0.055558382511157   0.277790791792201   0.625033099338157   1.0000000
B2   B   0.388597954351940   0.277394084523069   0.625923325901762   1.0000000
B2   B   0.555518388651264   0.777896053788501   0.625209583143156   1.0000000
B2   B   0.889036945151654   0.777893341871711   0.625098137244577   1.0000000
B2   B   0.722289866291728   0.277694933364882   0.625324593268670   1.0000000
B2   B   0.055656980437956   0.777825103343613   0.124958542826519   1.0000000
B2   B   0.388847681603488   0.777818273510930   0.124948460976695   1.0000000
B2   B   0.222112706597754   0.277723019965545   0.124590162151349   1.0000000
B2   B   0.722289866291728   0.777928266260182   0.124675406731330   1.0000000
B2   B   0.555514395771270   0.277535178337111   0.123811033747969   1.0000000
B2   B   0.888953546405009   0.277775597144265   0.124945804171714   1.0000000
B2   B   0.055599027733149   0.444480267034303   0.625013500126508   1.0000000
B2   B   0.222210926315255   0.944380445731824   0.625025590085855   1.0000000
B2   B   0.555533931449867   0.944433632391598   0.625077377261783   1.0000000
B2   B   0.388597954351940   0.444537203162207   0.625923325901762   1.0000000
B2   B   0.888953546405009   0.944511282594080   0.625054195828293   1.0000000
B2   B   0.055599027733149   0.944452094032175   0.124986499873492   1.0000000
B2   B   0.722426772010838   0.444477091182883   0.625988768131440   1.0000000
B2   B   0.388847681603488   0.944362741425894   0.124948460976695   1.0000000
B2   B   0.222136729025723   0.444492508828386   0.124806294143665   1.0000000
B2   B   0.222210926315255   0.611163813916767   0.124974409914145   1.0000000
B2   B   0.555704388730675   0.444518861032002   0.123224115349578   1.0000000
B2   B   0.722244370302452   0.944503826246710   0.124885472800124   1.0000000
B2   B   0.889036945151654   0.444476936613279   0.124901862755423   1.0000000
B2   B   0.055656980437956   0.611165210427679   0.625041457173481   1.0000000
B2   B   0.222136729025723   0.110977553530672   0.625193705856335   1.0000000
B2   B   0.722426772010838   0.611283014161298   0.625988768131440   1.0000000
B2   B   0.555518388651264   0.110955668196098   0.625209583143156   1.0000000
B2   B   0.888926098694895   0.111129716014115   0.625062555616972   1.0000000


