data_1
_audit_creation_method   'vasp2cif'
_cell_length_a    14.93631414619966
_cell_length_b    14.936314146199727
_cell_length_c    13.341276283792837
_cell_angle_alpha    90.0
_cell_angle_beta    90.0
_cell_angle_gamma    119.99999999999984

_symmetry_space_group_name_H-M    'P 1'
loop_
_atom_site_label
_atom_site_type_symbol
_atom_site_fract_x
_atom_site_fract_y
_atom_site_fract_z
_atom_site_occupancy
Ge2   Ge   0.444444444444443   0.388888888888886   0.375000000000000   1.0000000
N2   N   0.111107977951514   0.055556818406344   0.125186981765826   1.0000000
N2   N   0.611102677683704   0.555550668870370   0.124209133890756   1.0000000
N2   N   0.444448840454756   0.055556818406344   0.125186981765826   1.0000000
N2   N   0.944442940980970   0.555553450213916   0.124776804587178   1.0000000
N2   N   0.777777777777779   0.055555555555557   0.124657799331484   1.0000000
N2   N   0.111111111111114   0.722222222222221   0.625646782506318   1.0000000
N2   N   0.444448840454756   0.722225355381834   0.624813018234061   1.0000000
N2   N   0.277782664462961   0.222230655649502   0.625790866109268   1.0000000
N2   N   0.777776514927095   0.722225355381834   0.624813018234061   1.0000000
N2   N   0.611114432328568   0.222218901004749   0.624912149965082   1.0000000
N2   N   0.944438720339700   0.222220154469652   0.625139373078583   1.0000000
N2   N   0.277779883119224   0.722222824100254   0.124776804587178   1.0000000
N2   N   0.111104468676158   0.222218901004749   0.125087850034788   1.0000000
N2   N   0.444447991186540   0.222230655649502   0.124209133890756   1.0000000
N2   N   0.611114432328568   0.722228864657056   0.125087850034788   1.0000000
N2   N   0.944442940980970   0.722222824100254   0.124776804587178   1.0000000
N2   N   0.777781434130146   0.222220154469652   0.124860626921220   1.0000000
N2   N   0.111110509233131   0.888890392352359   0.625223195412907   1.0000000
N2   N   0.444447841970122   0.888890587651909   0.625078333587183   1.0000000
N2   N   0.277782664462961   0.388885342146789   0.625790866109268   1.0000000
N2   N   0.611102677683704   0.388885342146789   0.625790866109268   1.0000000
N2   N   0.777781434130146   0.888894612993629   0.625139373078583   1.0000000
N2   N   0.944442745681420   0.388885491363207   0.625078333587183   1.0000000
N2   N   0.111107977951514   0.388884492878573   0.125186981765826   1.0000000
N2   N   0.277779883119224   0.888890392352359   0.124776804587178   1.0000000
N2   N   0.611113178863446   0.888894612993629   0.124860626921220   1.0000000
N2   N   0.444444444444443   0.388888888888886   0.119888251346024   1.0000000
N2   N   0.944442745681420   0.888890587651909   0.124921666412578   1.0000000
N2   N   0.777776514927095   0.388884492878554   0.125186981765826   1.0000000
N2   N   0.277779058389616   0.555554274943697   0.624858317239926   1.0000000
N2   N   0.111107977951514   0.055556818406344   0.624813018234061   1.0000000
N2   N   0.611102677683704   0.555550668870370   0.625790866109268   1.0000000
N2   N   0.444448840454756   0.055556818406344   0.624813018234061   1.0000000
N2   N   0.944442940980970   0.555553450213916   0.625223195412908   1.0000000
N2   N   0.111110509233132   0.555553450213916   0.124776804587178   1.0000000
N2   N   0.777777777777779   0.055555555555557   0.625342200668405   1.0000000
N2   N   0.277779058389616   0.055558116779221   0.125141682760182   1.0000000
N2   N   0.444447991186540   0.555550668870370   0.124209133890756   1.0000000
N2   N   0.777775216554103   0.555554274943697   0.125141682760182   1.0000000
N2   N   0.611113178863446   0.055551899203329   0.124860626921220   1.0000000
N2   N   0.444447991186540   0.555550668870370   0.625790866109268   1.0000000
N2   N   0.944438720339700   0.055551899203329   0.124860626921220   1.0000000
N2   N   0.277779883119224   0.722222824100254   0.625223195412907   1.0000000
N2   N   0.111104468676158   0.222218901004749   0.624912149965082   1.0000000
N2   N   0.444447991186540   0.222230655649501   0.625790866109268   1.0000000
N2   N   0.611114432328568   0.722228864657056   0.624912149965082   1.0000000
N2   N   0.944442940980970   0.722222824100254   0.625223195412907   1.0000000
N2   N   0.777781434130146   0.222220154469652   0.625139373078583   1.0000000
N2   N   0.111111111111114   0.722222222222221   0.124353217493529   1.0000000
N2   N   0.444448840454756   0.722225355381834   0.125186981765826   1.0000000
N2   N   0.277782664462961   0.222230655649501   0.124209133890760   1.0000000
N2   N   0.777776514927095   0.722225355381834   0.125186981765826   1.0000000
N2   N   0.611114432328568   0.222218901004749   0.125087850034788   1.0000000
N2   N   0.944438720339700   0.222220154469652   0.124860626921220   1.0000000
N2   N   0.111107977951514   0.388884492878573   0.624813018234061   1.0000000
N2   N   0.277779883119224   0.888890392352359   0.625223195412907   1.0000000
N2   N   0.611113178863446   0.888894612993629   0.625139373078583   1.0000000
N2   N   0.444444444444443   0.388888888888886   0.630111748653909   1.0000000
N2   N   0.944442745681420   0.888890587651909   0.625078333587183   1.0000000
N2   N   0.111110509233131   0.888890392352359   0.124776804587178   1.0000000
N2   N   0.777776514927095   0.388884492878573   0.624813018234061   1.0000000
N2   N   0.444447841970122   0.888890587651909   0.124921666412578   1.0000000
N2   N   0.277782664462961   0.388885342146789   0.124209133890750   1.0000000
N2   N   0.277779058389616   0.555554274943697   0.125141682760183   1.0000000
N2   N   0.611102677683704   0.388885342146789   0.124209133890760   1.0000000
N2   N   0.777781434130146   0.888894612993629   0.124860626921220   1.0000000
N2   N   0.944442745681420   0.388885491363207   0.124921666412578   1.0000000
N2   N   0.111110509233132   0.555553450213916   0.625223195412907   1.0000000
N2   N   0.277779058389616   0.055558116779221   0.624858317239926   1.0000000
N2   N   0.777775216554103   0.555554274943697   0.624858317239926   1.0000000
N2   N   0.611113178863446   0.055551899203329   0.625139373078583   1.0000000
N2   N   0.944438720339700   0.055551899203329   0.625139373078583   1.0000000
N2   N   0.054579658362544   0.110453885030007   0.375000000000000   1.0000000
N2   N   0.555992612133887   0.611985224267458   0.375000000000000   1.0000000
N2   N   0.387608014886443   0.104856317912361   0.375000000000000   1.0000000
N2   N   0.891133354889646   0.612233344111283   0.375000000000000   1.0000000
N2   N   0.722398626287619   0.110934707045790   0.375000000000000   1.0000000
N2   N   0.055555619573793   0.777777713759495   0.875000000000000   1.0000000
N2   N   0.388886543981816   0.777779052072190   0.875000000000000   1.0000000
N2   N   0.222219798957711   0.277776566145495   0.875000000000000   1.0000000
N2   N   0.722225291349260   0.777777801673677   0.875000000000000   1.0000000
N2   N   0.555556767187660   0.277776566145495   0.875000000000000   1.0000000
N2   N   0.888891322990050   0.277782645979863   0.875000000000000   1.0000000
N2   N   0.221785737132815   0.777559535232968   0.375000000000000   1.0000000
N2   N   0.054579658362545   0.277459106665899   0.375000000000000   1.0000000
N2   N   0.378090699739058   0.256181399478170   0.375000000000000   1.0000000
N2   N   0.555874226667194   0.778753674970906   0.375000000000000   1.0000000
N2   N   0.890619564544154   0.779152559480854   0.375000000000000   1.0000000
N2   N   0.722879448303265   0.277459106665899   0.375000000000000   1.0000000
N2   N   0.055554281261081   0.944440825242825   0.875000000000000   1.0000000
N2   N   0.388886543981816   0.944440825242825   0.875000000000000   1.0000000
N2   N   0.222217113750684   0.444448707159917   0.875000000000000   1.0000000
N2   N   0.555578547779009   0.444455940556169   0.875000000000000   1.0000000
N2   N   0.722221446388434   0.944442892777238   0.875000000000000   1.0000000
N2   N   0.888892508090503   0.444446789351512   0.875000000000000   1.0000000
N2   N   0.054180773852382   0.444800338396459   0.375000000000000   1.0000000
N2   N   0.221099989221877   0.942199978443683   0.375000000000000   1.0000000
N2   N   0.555831195521746   0.944582264427748   0.375000000000000   1.0000000
N2   N   0.378090699739058   0.455242633594270   0.375000000000000   1.0000000
N2   N   0.888751068905581   0.944582264427748   0.375000000000000   1.0000000
N2   N   0.728477015420888   0.445725318446886   0.375000000000000   1.0000000
N2   N   0.222219507763331   0.611113825569877   0.875000000000000   1.0000000
N2   N   0.055555531659619   0.111108041984060   0.875000000000000   1.0000000
N2   N   0.555556767187681   0.611113534375682   0.875000000000000   1.0000000
N2   N   0.388884626173412   0.111101739924164   0.875000000000000   1.0000000
N2   N   0.888894317806436   0.611113825569877   0.875000000000000   1.0000000
N2   N   0.055773798100254   0.611547596200430   0.375000000000000   1.0000000
N2   N   0.722221446388434   0.111111886944735   0.875000000000000   1.0000000
N2   N   0.217248303026015   0.104856317912361   0.375000000000000   1.0000000
N2   N   0.387608014886443   0.616085030307156   0.375000000000000   1.0000000
N2   N   0.728477015420888   0.616085030307156   0.375000000000000   1.0000000
N2   N   0.555874226667194   0.110453885030007   0.375000000000000   1.0000000
N2   N   0.388884626173412   0.611116219582637   0.875000000000000   1.0000000
N2   N   0.888536080758321   0.110934707045790   0.375000000000000   1.0000000
N2   N   0.222222094185686   0.777777713759495   0.875000000000000   1.0000000
N2   N   0.055555531659619   0.277780823008909   0.875000000000000   1.0000000
N2   N   0.388877392777160   0.277754785554392   0.875000000000000   1.0000000
N2   N   0.555552510324424   0.777777801673677   0.875000000000000   1.0000000
N2   N   0.888892508090503   0.777779052072190   0.875000000000000   1.0000000
N2   N   0.722225291349260   0.277780823008909   0.875000000000000   1.0000000
N2   N   0.055773798100254   0.777559535232968   0.375000000000000   1.0000000
N2   N   0.388532994936870   0.779152559480854   0.375000000000000   1.0000000
N2   N   0.221348109065983   0.277340721199607   0.375000000000000   1.0000000
N2   N   0.722879448303265   0.778753674970906   0.375000000000000   1.0000000
N2   N   0.555992612133887   0.277340721199607   0.375000000000000   1.0000000
N2   N   0.888751068905581   0.277502137811581   0.375000000000000   1.0000000
N2   N   0.055554281261081   0.444446789351512   0.875000000000000   1.0000000
N2   N   0.222219507763331   0.944439015526893   0.875000000000000   1.0000000
N2   N   0.555550687353497   0.944442010343279   0.875000000000000   1.0000000
N2   N   0.388877392777160   0.444455940556169   0.875000000000000   1.0000000
N2   N   0.888891322990050   0.944442010343279   0.875000000000000   1.0000000
N2   N   0.054180773852382   0.942713768789175   0.375000000000000   1.0000000
N2   N   0.722231593409173   0.444448707159917   0.875000000000000   1.0000000
N2   N   0.388532994936870   0.942713768789175   0.375000000000000   1.0000000
N2   N   0.217248303026015   0.445725318446886   0.375000000000000   1.0000000
N2   N   0.221099989221877   0.612233344111283   0.375000000000000   1.0000000
N2   N   0.577151933855212   0.455242633594270   0.375000000000000   1.0000000
N2   N   0.722398626287619   0.944797252575008   0.375000000000000   1.0000000
N2   N   0.890619564544154   0.444800338396459   0.375000000000000   1.0000000
N2   N   0.055555619573793   0.611111239147646   0.875000000000000   1.0000000
N2   N   0.222217113750684   0.111101739924164   0.875000000000000   1.0000000
N2   N   0.722231593409173   0.611116219582637   0.875000000000000   1.0000000
N2   N   0.555552510324419   0.111108041984060   0.875000000000000   1.0000000
N2   N   0.888890440556091   0.111111886944735   0.875000000000000   1.0000000
B2   B   0.107816207725638   0.052469666345061   0.375000000000000   1.0000000
B2   B   0.619327217250247   0.562620226170715   0.375000000000000   1.0000000
B2   B   0.444653458619489   0.052469666345060   0.375000000000000   1.0000000
B2   B   0.945445181946175   0.555845765006526   0.375000000000000   1.0000000
B2   B   0.777777777777779   0.055555555555557   0.375000000000000   1.0000000
B2   B   0.111111111111114   0.722222222222221   0.875000000000000   1.0000000
B2   B   0.444441793884256   0.722219618537273   0.875000000000000   1.0000000
B2   B   0.277784354810148   0.222222856928817   0.875000000000000   1.0000000
B2   B   0.777777824652998   0.722219618537273   0.875000000000000   1.0000000
B2   B   0.611106853598521   0.222226479735114   0.875000000000000   1.0000000
B2   B   0.944448414444036   0.222226163546075   0.875000000000000   1.0000000
B2   B   0.277487568326782   0.722932750273313   0.375000000000000   1.0000000
B2   B   0.110035931759593   0.221684632546497   0.375000000000000   1.0000000
B2   B   0.443293008920670   0.214006116083238   0.375000000000000   1.0000000
B2   B   0.611648700786895   0.723297401573660   0.375000000000000   1.0000000
B2   B   0.945445181946280   0.722932750273313   0.375000000000000   1.0000000
B2   B   0.777906016045829   0.221765728602784   0.375000000000000   1.0000000
B2   B   0.111111399594201   0.888888891105662   0.875000000000000   1.0000000
B2   B   0.444442311115811   0.888887822224677   0.875000000000000   1.0000000
B2   B   0.277784354810148   0.388894831214488   0.875000000000000   1.0000000
B2   B   0.611110476404524   0.388894831214488   0.875000000000000   1.0000000
B2   B   0.777777749102029   0.888884918889292   0.875000000000000   1.0000000
B2   B   0.944445511108651   0.388891022217517   0.875000000000000   1.0000000
B2   B   0.107816207725638   0.388679874713840   0.375000000000000   1.0000000
B2   B   0.277487568326782   0.887888151387153   0.375000000000000   1.0000000
B2   B   0.611567604730370   0.889473620776283   0.375000000000000   1.0000000
B2   B   0.944267286421627   0.889066046911701   0.375000000000000   1.0000000
B2   B   0.780863666988338   0.388679874713840   0.375000000000000   1.0000000
B2   B   0.277777165478691   0.555556167854353   0.875000000000000   1.0000000
B2   B   0.111113714796161   0.055555508680439   0.875000000000000   1.0000000
B2   B   0.611110476404524   0.555548978523032   0.875000000000000   1.0000000
B2   B   0.444441793884256   0.055555508680440   0.875000000000000   1.0000000
B2   B   0.944444442227666   0.555555841821890   0.875000000000000   1.0000000
B2   B   0.110400583060278   0.555845765006526   0.375000000000000   1.0000000
B2   B   0.777777777777779   0.055555555555557   0.875000000000000   1.0000000
B2   B   0.276067454542779   0.052134909085831   0.375000000000000   1.0000000
B2   B   0.443293008920670   0.562620226170715   0.375000000000000   1.0000000
B2   B   0.781198424247777   0.557265878790219   0.375000000000000   1.0000000
B2   B   0.611567604730370   0.055427317287659   0.375000000000000   1.0000000
B2   B   0.444438502118840   0.555548978523032   0.875000000000000   1.0000000
B2   B   0.943859712557045   0.055427317287659   0.375000000000000   1.0000000
B2   B   0.277777491511228   0.722221933739098   0.875000000000000   1.0000000
B2   B   0.111119626136892   0.222226479735114   0.875000000000000   1.0000000
B2   B   0.444438502118840   0.222222856928816   0.875000000000000   1.0000000
B2   B   0.611106853598521   0.722213707196592   0.875000000000000   1.0000000
B2   B   0.944444442227781   0.722221933739098   0.875000000000000   1.0000000
B2   B   0.777777749102029   0.222226163546075   0.875000000000000   1.0000000
B2   B   0.111111111111114   0.722222222222221   0.375000000000000   1.0000000
B2   B   0.444653458619489   0.725517125607757   0.375000000000000   1.0000000
B2   B   0.270713107162490   0.214006116083238   0.375000000000000   1.0000000
B2   B   0.780863666988338   0.725517125607757   0.375000000000000   1.0000000
B2   B   0.611648700786895   0.221684632546497   0.375000000000000   1.0000000
B2   B   0.943859712557045   0.221765728602784   0.375000000000000   1.0000000
B2   B   0.111113714796161   0.388891539449072   0.875000000000000   1.0000000
B2   B   0.277777491511228   0.888888891105662   0.875000000000000   1.0000000
B2   B   0.611107169787348   0.888884918889292   0.875000000000000   1.0000000
B2   B   0.444444444444443   0.388888888888886   0.875000000000000   1.0000000
B2   B   0.944445511108651   0.888887822224677   0.875000000000000   1.0000000
B2   B   0.110400583060278   0.887888151387048   0.375000000000000   1.0000000
B2   B   0.777777824652998   0.388891539449072   0.875000000000000   1.0000000
B2   B   0.444798760489927   0.889066046911701   0.375000000000000   1.0000000
B2   B   0.270713107162490   0.390040324412659   0.375000000000000   1.0000000
B2   B   0.276067454542779   0.557265878790219   0.375000000000000   1.0000000
B2   B   0.619327217250247   0.390040324412659   0.375000000000000   1.0000000
B2   B   0.777906016045829   0.889473620776283   0.375000000000000   1.0000000
B2   B   0.944267286421627   0.388534572843402   0.375000000000000   1.0000000
B2   B   0.111111399594201   0.555555841821890   0.875000000000000   1.0000000
B2   B   0.277777165478691   0.055554330957593   0.875000000000000   1.0000000
B2   B   0.777779002375955   0.555556167854353   0.875000000000000   1.0000000
B2   B   0.611107169787348   0.055555584231331   0.875000000000000   1.0000000
B2   B   0.944448414444036   0.055555584231331   0.875000000000000   1.0000000
B2   B   0.055545301040588   0.111113635597362   0.125047055553212   1.0000000
B2   B   0.555551357475906   0.611102714951528   0.124467643815889   1.0000000
B2   B   0.388894423969910   0.111127778625945   0.124960808346690   1.0000000
B2   B   0.888884383508807   0.611108858421159   0.124909128859135   1.0000000
B2   B   0.722224779057921   0.111108554275489   0.124773432500494   1.0000000
B2   B   0.055558189678375   0.777775143655116   0.625452672148954   1.0000000
B2   B   0.388896730880943   0.777781131285672   0.625024481235691   1.0000000
B2   B   0.222230618381793   0.277781975857572   0.625532356184034   1.0000000
B2   B   0.722219697735740   0.777788032292470   0.624952944446860   1.0000000
B2   B   0.555551357475906   0.277781975857572   0.625532356184057   1.0000000
B2   B   0.888883213431418   0.277766426862919   0.625120278470913   1.0000000
B2   B   0.222216953976551   0.777775143655116   0.124547327850673   1.0000000
B2   B   0.055545301040588   0.277764998776526   0.125047055553206   1.0000000
B2   B   0.388904687230089   0.277809374460115   0.122664715691231   1.0000000
B2   B   0.555568334556660   0.777788032292470   0.125047055553206   1.0000000
B2   B   0.888884400404475   0.777781131285672   0.124975518764353   1.0000000
B2   B   0.722219697735740   0.277764998776526   0.125047055553212   1.0000000
B2   B   0.055552202047693   0.944448932928966   0.625024481235691   1.0000000
B2   B   0.388896730880943   0.944448932928854   0.625024481235691   1.0000000
B2   B   0.222233354656103   0.444438909363415   0.625039191653350   1.0000000
B2   B   0.555523958873202   0.444428646103239   0.627335284308994   1.0000000
B2   B   0.722224779057921   0.944449558115722   0.625226567499334   1.0000000
B2   B   0.888884400404363   0.444436602452385   0.625024481235691   1.0000000
B2   B   0.055552202047693   0.444436602452385   0.124975518764355   1.0000000
B2   B   0.222224474912321   0.944448949824522   0.124909128859135   1.0000000
B2   B   0.555566906470505   0.944450119901911   0.124879721528911   1.0000000
B2   B   0.388904687230063   0.444428646103265   0.122664715691232   1.0000000
B2   B   0.888883213431418   0.944450119901911   0.124879721528911   1.0000000
B2   B   0.722205554707411   0.444438909363415   0.124960808346690   1.0000000
B2   B   0.222224474912321   0.611108858421159   0.625090871140841   1.0000000
B2   B   0.055545301040588   0.111113635597362   0.624952944446861   1.0000000
B2   B   0.555551357475906   0.611102714951528   0.625532356184057   1.0000000
B2   B   0.388894423969914   0.111127778625945   0.625039191653350   1.0000000
B2   B   0.888884383508807   0.611108858421159   0.625090871140841   1.0000000
B2   B   0.055558189678375   0.611116379356783   0.124547327850685   1.0000000
B2   B   0.722224779057921   0.111108554275489   0.625226567499334   1.0000000
B2   B   0.222233354656096   0.111127778625945   0.124960808346690   1.0000000
B2   B   0.388894423969910   0.611099978677356   0.124960808346690   1.0000000
B2   B   0.722205554707411   0.611099978677356   0.124960808346690   1.0000000
B2   B   0.555568334556660   0.111113635597362   0.125047055553212   1.0000000
B2   B   0.388894423969914   0.611099978677356   0.625039191653350   1.0000000
B2   B   0.888883775217607   0.111108554275489   0.124773432500494   1.0000000
B2   B   0.222216953976551   0.777775143655116   0.625452672148951   1.0000000
B2   B   0.055545301040589   0.277764998776526   0.624952944446860   1.0000000
B2   B   0.388904687230063   0.277809374460115   0.627335284308994   1.0000000
B2   B   0.555568334556660   0.777788032292470   0.624952944446860   1.0000000
B2   B   0.888884400404475   0.777781131285672   0.625024481235691   1.0000000
B2   B   0.722219697735740   0.277764998776526   0.624952944446861   1.0000000
B2   B   0.055558189678377   0.777775143655116   0.124547327850673   1.0000000
B2   B   0.388896730880943   0.777781131285672   0.124975518764353   1.0000000
B2   B   0.222230618381793   0.277781975857572   0.124467643815889   1.0000000
B2   B   0.722219697735740   0.777788032292470   0.125047055553212   1.0000000
B2   B   0.555551357475906   0.277781975857572   0.124467643815889   1.0000000
B2   B   0.888883213431418   0.277766426862919   0.124879721528911   1.0000000
B2   B   0.055552202047693   0.444436602452385   0.625024481235691   1.0000000
B2   B   0.222224474912321   0.944448949824522   0.625090871140841   1.0000000
B2   B   0.555566906470505   0.944450119901911   0.625120278470913   1.0000000
B2   B   0.388904687230089   0.444428646103239   0.627335284308994   1.0000000
B2   B   0.888883213431418   0.944450119901911   0.625120278470913   1.0000000
B2   B   0.055552202047693   0.944448932928966   0.124975518764353   1.0000000
B2   B   0.722205554707411   0.444438909363415   0.625039191653350   1.0000000
B2   B   0.388896730880943   0.944448932928966   0.124975518764353   1.0000000
B2   B   0.222233354656096   0.444438909363415   0.124960808346690   1.0000000
B2   B   0.222224474912321   0.611108858421159   0.124909128859135   1.0000000
B2   B   0.555523958873202   0.444428646103265   0.122664715691232   1.0000000
B2   B   0.722224779057921   0.944449558115722   0.124773432500494   1.0000000
B2   B   0.888884400404363   0.444436602452385   0.124975518764353   1.0000000
B2   B   0.055558189678375   0.611116379356783   0.625452672148954   1.0000000
B2   B   0.222233354656103   0.111127778625945   0.625039191653350   1.0000000
B2   B   0.722205554707411   0.611099978677356   0.625039191653350   1.0000000
B2   B   0.555568334556660   0.111113635597362   0.624952944446860   1.0000000
B2   B   0.888883775217607   0.111108554275489   0.625226567499336   1.0000000


