data_1
_audit_creation_method   'vasp2cif'
_cell_length_a    17.52789999999977
_cell_length_b    17.52789999999977
_cell_length_c    15.0
_cell_angle_alpha    90.0
_cell_angle_beta    90.0
_cell_angle_gamma    119.99999999999916

_symmetry_space_group_name_H-M    'P 1'
loop_
_atom_site_label
_atom_site_type_symbol
_atom_site_fract_x
_atom_site_fract_y
_atom_site_fract_z
_atom_site_occupancy
B2   B   0.905703889565498   0.954295592786236   0.111019876069375   1.0000000
B2   B   0.906220938039438   0.097592792448015   0.111048037143808   1.0000000
B2   B   0.905851870917040   0.240139960602136   0.111094911123632   1.0000000
B2   B   0.904755421693972   0.382234279783982   0.111025993925963   1.0000000
B2   B   0.902638251185482   0.523910930510836   0.110974546119000   1.0000000
B2   B   0.900193272433014   0.665672788611488   0.110991024040004   1.0000000
B2   B   0.903541044309606   0.810077524832909   0.111031289146453   1.0000000
B2   B   0.047018192497853   0.951742164897421   0.111000372636041   1.0000000
B2   B   0.047936681375007   0.095476678632152   0.111001279452784   1.0000000
B2   B   0.048884300005682   0.239319816784465   0.111038290712295   1.0000000
B2   B   0.049050183086478   0.382106218032954   0.111035223355654   1.0000000
B2   B   0.048017109888294   0.523964006778988   0.110980970122072   1.0000000
B2   B   0.046196263490846   0.665609659808502   0.110964517706401   1.0000000
B2   B   0.045718351679163   0.807936189972019   0.110973020552217   1.0000000
B2   B   0.189134005821108   0.950029543140264   0.111037606853257   1.0000000
B2   B   0.189537778095433   0.093215163780852   0.111045052869264   1.0000000
B2   B   0.190081899402608   0.236529734932720   0.110971099866618   1.0000000
B2   B   0.192646810071087   0.381241977567912   0.110970906886819   1.0000000
B2   B   0.193162547265263   0.523989232995368   0.110994016906166   1.0000000
B2   B   0.191971588414107   0.665689651910590   0.111008714369906   1.0000000
B2   B   0.189772698820592   0.807688352478133   0.110981604881946   1.0000000
B2   B   0.332776038816467   0.950346504294571   0.111024664817868   1.0000000
B2   B   0.331624854753477   0.091686431608315   0.111048838188765   1.0000000
B2   B   0.331633649935177   0.233252055885064   0.111031893038366   1.0000000
B2   B   0.332714588867741   0.376177363242639   0.111005180742062   1.0000000
B2   B   0.338121079944665   0.524183385483310   0.110949061482609   1.0000000
B2   B   0.338581257017716   0.666118284392922   0.111039314195796   1.0000000
B2   B   0.334036149240765   0.808233133038896   0.111035339473044   1.0000000
B2   B   0.476590001676017   0.952520779488484   0.110990500150286   1.0000000
B2   B   0.475626000990759   0.094376832562880   0.110987849463228   1.0000000
B2   B   0.473460173202536   0.234802565669852   0.111030421991834   1.0000000
B2   B   0.488708317485540   0.669932281130401   0.111037561443103   1.0000000
B2   B   0.477932722521567   0.810529230293093   0.111054233346399   1.0000000
B2   B   0.620316167584000   0.955619552820850   0.110973602411321   1.0000000
B2   B   0.619400712536301   0.096780495189770   0.110959368799609   1.0000000
B2   B   0.618431297738213   0.238464762934680   0.110993935565712   1.0000000
B2   B   0.616972289580469   0.381698850851226   0.111054718012228   1.0000000
B2   B   0.619951223867926   0.674852333809739   0.111009407395244   1.0000000
B2   B   0.622086219904032   0.815973076381348   0.111024614193408   1.0000000
B2   B   0.763948224243026   0.956203431631796   0.110979180468734   1.0000000
B2   B   0.763108292589356   0.097970526020722   0.111007801450011   1.0000000
B2   B   0.762185387458656   0.239991916883499   0.111041128835430   1.0000000
B2   B   0.760212288205936   0.382078557772949   0.111029959104737   1.0000000
B2   B   0.755696620369215   0.523803171883434   0.110992354707460   1.0000000
B2   B   0.754441762188445   0.667654869407348   0.110999433040473   1.0000000
B2   B   0.763202056989546   0.813367843885644   0.111026501072330   1.0000000
C2   C   0.472631653463201   0.374378922964715   0.111339526016556   1.0000000
C2   C   0.470582989117663   0.508132664013256   0.111466573550259   1.0000000
C2   C   0.516258762404672   0.465083840513733   0.111752115740974   1.0000000
N2   N   0.952602245529862   0.905932499644273   0.110997843365372   1.0000000
N2   N   0.953435311800862   0.049560186832539   0.111006685558207   1.0000000
N2   N   0.953862277225749   0.192688180685037   0.111062445607338   1.0000000
N2   N   0.953603157737086   0.335096060693357   0.111039103231645   1.0000000
N2   N   0.952515189440225   0.477124614865354   0.110955338359205   1.0000000
N2   N   0.950787995442061   0.619134365580846   0.110952553374624   1.0000000
N2   N   0.950929440374739   0.761746363955162   0.110982812045897   1.0000000
N2   N   0.094272799860946   0.903502786427784   0.110976593929670   1.0000000
N2   N   0.094925775396329   0.047102166739098   0.110987685724186   1.0000000
N2   N   0.095524951507954   0.190575974975727   0.110970335543115   1.0000000
N2   N   0.097166522349755   0.334529719954859   0.111007194740917   1.0000000
N2   N   0.097277813980113   0.477115607587386   0.110987340129420   1.0000000
N2   N   0.096071662310067   0.618960027753567   0.110967752042524   1.0000000
N2   N   0.094559428860710   0.760892060052053   0.110935920562752   1.0000000
N2   N   0.237470423600534   0.902912890550765   0.111010035528864   1.0000000
N2   N   0.236711747770158   0.045137784603985   0.111055027784303   1.0000000
N2   N   0.237107446591577   0.188311309237372   0.110999762625139   1.0000000
N2   N   0.238202497986686   0.331234886617733   0.110935257802544   1.0000000
N2   N   0.241884777215838   0.476743662059686   0.110933796986371   1.0000000
N2   N   0.241832303390481   0.619040660784901   0.111016001885687   1.0000000
N2   N   0.238689410994196   0.760810038287417   0.110994467177976   1.0000000
N2   N   0.381127036417763   0.903545684700380   0.111001669796510   1.0000000
N2   N   0.380117847489286   0.045345734702686   0.111000001413819   1.0000000
N2   N   0.378633491133206   0.186216275098713   0.111027202263211   1.0000000
N2   N   0.380718102324984   0.328380137163622   0.111050940670192   1.0000000
N2   N   0.381059367780275   0.470580983519668   0.111009072158991   1.0000000
N2   N   0.389914600580820   0.619801373335380   0.110977493679701   1.0000000
N2   N   0.382796088717656   0.761399136895551   0.111054123891594   1.0000000
N2   N   0.524838651357747   0.906049997331352   0.110985083850021   1.0000000
N2   N   0.523868685487849   0.047681064989497   0.110944856549941   1.0000000
N2   N   0.522597216798427   0.189163476086456   0.110965819003629   1.0000000
N2   N   0.518105622858735   0.329361272120849   0.111128397010115   1.0000000
N2   N   0.526665158224183   0.764620034202287   0.111047678033787   1.0000000
N2   N   0.668956026868530   0.910276714336124   0.110956185366070   1.0000000
N2   N   0.667745662392372   0.050381150640489   0.110958632569178   1.0000000
N2   N   0.666730402437538   0.191439719327772   0.110968142946077   1.0000000
N2   N   0.664588344285688   0.332256212092802   0.111009798032221   1.0000000
N2   N   0.663072463746575   0.471839591668747   0.110964149936927   1.0000000
N2   N   0.663327919522064   0.630246052102338   0.110943843607133   1.0000000
N2   N   0.668889536137897   0.770524924330503   0.111029356966818   1.0000000
N2   N   0.811385752177396   0.908952701753033   0.110979349291139   1.0000000
N2   N   0.811349184004470   0.051166568406095   0.110988837951417   1.0000000
N2   N   0.810609510220671   0.192882267051869   0.111054298377776   1.0000000
N2   N   0.809418743859318   0.334749250806349   0.111022297303669   1.0000000
N2   N   0.807633599992129   0.476876000118089   0.110983564960902   1.0000000
N2   N   0.805322705968246   0.619962676748915   0.110988562405609   1.0000000
N2   N   0.809617173856584   0.765218500003425   0.111022089922305   1.0000000


