data_1
_audit_creation_method   'vasp2cif'
_cell_length_a    14.93631414619966
_cell_length_b    14.936314146199727
_cell_length_c    13.341276283792837
_cell_angle_alpha    90.0
_cell_angle_beta    90.0
_cell_angle_gamma    119.99999999999984

_symmetry_space_group_name_H-M    'P 1'
loop_
_atom_site_label
_atom_site_type_symbol
_atom_site_fract_x
_atom_site_fract_y
_atom_site_fract_z
_atom_site_occupancy
C2   C   0.390356865934219   0.438910368238831   0.375000000000000   1.0000000
C2   C   0.440264972292194   0.382152195706123   0.375000000000000   1.0000000
N2   N   0.111074225964900   0.055579280461762   0.124782138852342   1.0000000
N2   N   0.611227703697941   0.555822438041674   0.125033850032682   1.0000000
N2   N   0.444452989533439   0.055582056039730   0.124707101580549   1.0000000
N2   N   0.944416266890319   0.555519800075912   0.124849083498064   1.0000000
N2   N   0.777761557969021   0.055543812517872   0.124971298188999   1.0000000
N2   N   0.111085581175684   0.722208687834167   0.625092351951444   1.0000000
N2   N   0.444454316470865   0.722253009366896   0.625418717074899   1.0000000
N2   N   0.277713912849055   0.222237620894917   0.624975500756550   1.0000000
N2   N   0.777822267112459   0.722329722217076   0.625320842785831   1.0000000
N2   N   0.611176124078470   0.222164795245270   0.625278037250143   1.0000000
N2   N   0.944384115225098   0.222159699917550   0.625159769030215   1.0000000
N2   N   0.277764127491242   0.722211730184801   0.124830244683790   1.0000000
N2   N   0.110992713381815   0.222169691973853   0.124661595153994   1.0000000
N2   N   0.444441239006496   0.222239889375488   0.125082089835120   1.0000000
N2   N   0.611156368602464   0.722317557554859   0.124610826970505   1.0000000
N2   N   0.944421828843971   0.722226684641659   0.124838465745662   1.0000000
N2   N   0.777795245516747   0.222153156430905   0.124854278995605   1.0000000
N2   N   0.111089361528940   0.888912250946944   0.625182594078590   1.0000000
N2   N   0.444445465248276   0.888910228923635   0.625185208455669   1.0000000
N2   N   0.277617831061179   0.388797263839122   0.625539686742234   1.0000000
N2   N   0.611264752317069   0.388713730088825   0.625051101795272   1.0000000
N2   N   0.777794511382693   0.888957350551197   0.625156307919527   1.0000000
N2   N   0.944431246486908   0.388828721083865   0.625147395341932   1.0000000
N2   N   0.111036559579149   0.388824914393746   0.124667536093158   1.0000000
N2   N   0.277769635514549   0.888908702985822   0.124843316188234   1.0000000
N2   N   0.611113922427708   0.888918505589971   0.124874894794267   1.0000000
N2   N   0.444350150165478   0.388850029401328   0.126324649921945   1.0000000
N2   N   0.944443927377132   0.888942128986932   0.124807180526891   1.0000000
N2   N   0.777834623494222   0.388808920026854   0.124738056271281   1.0000000
N2   N   0.277738284236528   0.555521598992371   0.625374409667921   1.0000000
N2   N   0.111074225964900   0.055579280461762   0.625217861147658   1.0000000
N2   N   0.611227703697941   0.555822438041674   0.624966149967318   1.0000000
N2   N   0.444452989533439   0.055582056039730   0.625292898419451   1.0000000
N2   N   0.944416266890319   0.555519800075912   0.625150916501935   1.0000000
N2   N   0.111073009060409   0.555510588926449   0.124807181244007   1.0000000
N2   N   0.777761557969021   0.055543812517872   0.625028701811003   1.0000000
N2   N   0.277762490783824   0.055594944625444   0.124776875340988   1.0000000
N2   N   0.444443704523574   0.555636285158988   0.124581030930423   1.0000000
N2   N   0.777760226756400   0.555545086714851   0.125091286057879   1.0000000
N2   N   0.611114293308171   0.055541457351534   0.124896663483244   1.0000000
N2   N   0.444443704523574   0.555636285158988   0.625418969069577   1.0000000
N2   N   0.944399918309691   0.055559881904134   0.124860160372580   1.0000000
N2   N   0.277764127491242   0.722211730184801   0.625169755316210   1.0000000
N2   N   0.110992713381815   0.222169691973853   0.625338404846007   1.0000000
N2   N   0.444441239006496   0.222239889375488   0.624917910164880   1.0000000
N2   N   0.611156368602464   0.722317557554859   0.625389173029497   1.0000000
N2   N   0.944421828843971   0.722226684641659   0.625161534254337   1.0000000
N2   N   0.777795245516747   0.222153156430905   0.625145721004396   1.0000000
N2   N   0.111085581175684   0.722208687834167   0.124907648048558   1.0000000
N2   N   0.444454316470865   0.722253009366896   0.124581282925102   1.0000000
N2   N   0.277713912849055   0.222237620894917   0.125024499243450   1.0000000
N2   N   0.777822267112459   0.722329722217076   0.124679157214170   1.0000000
N2   N   0.611176124078470   0.222164795245270   0.124721962749855   1.0000000
N2   N   0.944384115225098   0.222159699917550   0.124840230969785   1.0000000
N2   N   0.111036559579149   0.388824914393746   0.625332463906840   1.0000000
N2   N   0.277769635514549   0.888908702985822   0.625156683811767   1.0000000
N2   N   0.611113922427708   0.888918505589971   0.625125105205732   1.0000000
N2   N   0.444350150165478   0.388850029401328   0.623675350078056   1.0000000
N2   N   0.944443927377132   0.888942128986932   0.625192819473109   1.0000000
N2   N   0.111089361528940   0.888912250946944   0.124817405921409   1.0000000
N2   N   0.777834623494222   0.388808920026854   0.625261943728718   1.0000000
N2   N   0.444445465248276   0.888910228923635   0.124814791544331   1.0000000
N2   N   0.277617831061179   0.388797263839122   0.124460313257767   1.0000000
N2   N   0.277738284236528   0.555521598992371   0.124625590332078   1.0000000
N2   N   0.611264752317069   0.388713730088825   0.124948898204727   1.0000000
N2   N   0.777794511382693   0.888957350551197   0.124843692080472   1.0000000
N2   N   0.944431246486908   0.388828721083865   0.124852604658070   1.0000000
N2   N   0.111073009060409   0.555510588926449   0.625192818755992   1.0000000
N2   N   0.277762490783824   0.055594944625444   0.625223124659012   1.0000000
N2   N   0.777760226756400   0.555545086714851   0.624908713942121   1.0000000
N2   N   0.611114293308171   0.055541457351534   0.625103336516756   1.0000000
N2   N   0.944399918309691   0.055559881904134   0.625139839627420   1.0000000
N2   N   0.052877139274309   0.109005388799570   0.375000000000000   1.0000000
N2   N   0.559035173704989   0.602987986062350   0.375000000000000   1.0000000
N2   N   0.389039937160227   0.112461383610290   0.375000000000000   1.0000000
N2   N   0.893773252913742   0.613555687652545   0.375000000000000   1.0000000
N2   N   0.720985942133503   0.112140639597363   0.375000000000000   1.0000000
N2   N   0.055563633160207   0.777836579241236   0.875000000000000   1.0000000
N2   N   0.388866434870897   0.777838051245703   0.875000000000000   1.0000000
N2   N   0.222226762626935   0.277831776717421   0.875000000000000   1.0000000
N2   N   0.722209789792788   0.777816833125595   0.875000000000000   1.0000000
N2   N   0.555527862298374   0.277815402090604   0.875000000000000   1.0000000
N2   N   0.888884122544516   0.277840103607194   0.875000000000000   1.0000000
N2   N   0.224405659545674   0.778357147718098   0.375000000000000   1.0000000
N2   N   0.053065278969948   0.276803324220048   0.375000000000000   1.0000000
N2   N   0.385534400802197   0.275913239865437   0.375000000000000   1.0000000
N2   N   0.556587667257441   0.774522302240449   0.375000000000000   1.0000000
N2   N   0.890457084990643   0.777758407332077   0.375000000000000   1.0000000
N2   N   0.720731552679908   0.280619582087417   0.375000000000000   1.0000000
N2   N   0.055552474067200   0.944491333913002   0.875000000000000   1.0000000
N2   N   0.388873148796396   0.944482694931349   0.875000000000000   1.0000000
N2   N   0.222218910991946   0.444514928765361   0.875000000000000   1.0000000
N2   N   0.555543197153090   0.444496634819619   0.875000000000000   1.0000000
N2   N   0.722209552260278   0.944488088186202   0.875000000000000   1.0000000
N2   N   0.888892701973048   0.444513494750714   0.875000000000000   1.0000000
N2   N   0.055113251991278   0.444543897054845   0.375000000000000   1.0000000
N2   N   0.223453623115399   0.944965792162598   0.375000000000000   1.0000000
N2   N   0.555997326296746   0.945013142015456   0.375000000000000   1.0000000
N2   N   0.887821364340946   0.943189632628090   0.375000000000000   1.0000000
N2   N   0.722843205336246   0.448944558938487   0.375000000000000   1.0000000
N2   N   0.222200618046989   0.611179125941981   0.875000000000000   1.0000000
N2   N   0.055554738281475   0.111157575616197   0.875000000000000   1.0000000
N2   N   0.555530270693379   0.611163274822001   0.875000000000000   1.0000000
N2   N   0.388868188104505   0.111134381428761   0.875000000000000   1.0000000
N2   N   0.888910585301128   0.611177867914183   0.875000000000000   1.0000000
N2   N   0.058267959058272   0.612013680244187   0.375000000000000   1.0000000
N2   N   0.722207849265894   0.111163672215823   0.875000000000000   1.0000000
N2   N   0.220710388964098   0.109689920408653   0.375000000000000   1.0000000
N2   N   0.390816284211633   0.609990696154908   0.375000000000000   1.0000000
N2   N   0.725906791199834   0.610799427769822   0.375000000000000   1.0000000
N2   N   0.555473336810625   0.115710498123068   0.375000000000000   1.0000000
N2   N   0.388857607601025   0.611181739707160   0.875000000000000   1.0000000
N2   N   0.886915382113294   0.110471190959305   0.375000000000000   1.0000000
N2   N   0.222210956404246   0.777834066892501   0.875000000000000   1.0000000
N2   N   0.055557844118677   0.277836417826189   0.875000000000000   1.0000000
N2   N   0.388882934019390   0.277825247861134   0.875000000000000   1.0000000
N2   N   0.555533324270919   0.777825865186508   0.875000000000000   1.0000000
N2   N   0.888894881165565   0.777827944685391   0.875000000000000   1.0000000
N2   N   0.722208083155763   0.277839942353434   0.875000000000000   1.0000000
N2   N   0.058308965500961   0.778972173701639   0.375000000000000   1.0000000
N2   N   0.390540445627177   0.777712456968887   0.375000000000000   1.0000000
N2   N   0.217361158629881   0.273921164207802   0.375000000000000   1.0000000
N2   N   0.722812107763101   0.776049696798355   0.375000000000000   1.0000000
N2   N   0.554506942853797   0.288904182348721   0.375000000000000   1.0000000
N2   N   0.887071772065360   0.278288069275645   0.375000000000000   1.0000000
N2   N   0.055552214643689   0.444509159567772   0.875000000000000   1.0000000
N2   N   0.222212190787748   0.944483801977527   0.875000000000000   1.0000000
N2   N   0.555538900488815   0.944492593744467   0.875000000000000   1.0000000
N2   N   0.388883765658342   0.444504851481917   0.875000000000000   1.0000000
N2   N   0.888884238292601   0.944487005969205   0.875000000000000   1.0000000
N2   N   0.055517635313710   0.943843310901257   0.375000000000000   1.0000000
N2   N   0.722228429549097   0.444516947521119   0.875000000000000   1.0000000
N2   N   0.390171071503756   0.945518691769553   0.375000000000000   1.0000000
N2   N   0.220909247734590   0.443065810404199   0.375000000000000   1.0000000
N2   N   0.224023765213024   0.610883695060921   0.375000000000000   1.0000000
N2   N   0.721480068720380   0.943608054238897   0.375000000000000   1.0000000
N2   N   0.888943967964535   0.445941888056649   0.375000000000000   1.0000000
N2   N   0.055558830185261   0.611175047526329   0.875000000000000   1.0000000
N2   N   0.222217449109322   0.111153402258133   0.875000000000000   1.0000000
N2   N   0.722231525077984   0.611165314686536   0.875000000000000   1.0000000
N2   N   0.555534855828341   0.111153324919322   0.875000000000000   1.0000000
N2   N   0.888884463144475   0.111159757896015   0.875000000000000   1.0000000
B2   B   0.109914525129821   0.054636079123712   0.375000000000000   1.0000000
B2   B   0.612248017766471   0.537031272221057   0.375000000000000   1.0000000
B2   B   0.444777046273800   0.057555989325813   0.375000000000000   1.0000000
B2   B   0.946989775443508   0.556822235392443   0.375000000000000   1.0000000
B2   B   0.775793587569834   0.055171240900360   0.375000000000000   1.0000000
B2   B   0.111090469301429   0.722260122306406   0.875000000000000   1.0000000
B2   B   0.444413893784209   0.722196506170509   0.875000000000000   1.0000000
B2   B   0.277896517820426   0.222377763483134   0.875000000000000   1.0000000
B2   B   0.777682573981474   0.722141192885076   0.875000000000000   1.0000000
B2   B   0.611055020848802   0.222360936477114   0.875000000000000   1.0000000
B2   B   0.944467656112317   0.222310795986629   0.875000000000000   1.0000000
B2   B   0.279612869607408   0.721973833013450   0.375000000000000   1.0000000
B2   B   0.107918475924561   0.220153552544468   0.375000000000000   1.0000000
B2   B   0.444995248100530   0.225049200153723   0.375000000000000   1.0000000
B2   B   0.611376625624281   0.714659469446794   0.375000000000000   1.0000000
B2   B   0.947173379903033   0.723481002508991   0.375000000000000   1.0000000
B2   B   0.775405815658745   0.224101293842198   0.375000000000000   1.0000000
B2   B   0.111109577650165   0.888931580490110   0.875000000000000   1.0000000
B2   B   0.444417604825067   0.888916996258574   0.875000000000000   1.0000000
B2   B   0.277915376712480   0.389014200910834   0.875000000000000   1.0000000
B2   B   0.611043497721167   0.389009860252242   0.875000000000000   1.0000000
B2   B   0.777719166477537   0.888839687113989   0.875000000000000   1.0000000
B2   B   0.944431493262676   0.388987534273188   0.875000000000000   1.0000000
B2   B   0.110533724135660   0.388583707271014   0.375000000000000   1.0000000
B2   B   0.279305977042563   0.889581534966926   0.375000000000000   1.0000000
B2   B   0.610404530908568   0.886524815281138   0.375000000000000   1.0000000
B2   B   0.944244113687687   0.888030176528260   0.375000000000000   1.0000000
B2   B   0.775923826141402   0.392511867401620   0.375000000000000   1.0000000
B2   B   0.277828350935687   0.555613436243918   0.875000000000000   1.0000000
B2   B   0.111160660719019   0.055635044938153   0.875000000000000   1.0000000
B2   B   0.611036173488485   0.555513767733453   0.875000000000000   1.0000000
B2   B   0.444430773768493   0.055652104319866   0.875000000000000   1.0000000
B2   B   0.944393838524043   0.555616730117031   0.875000000000000   1.0000000
B2   B   0.112981058014078   0.555790468895436   0.375000000000000   1.0000000
B2   B   0.777747470651970   0.055591096341671   0.875000000000000   1.0000000
B2   B   0.278330437801668   0.056292995642489   0.375000000000000   1.0000000
B2   B   0.448186224279167   0.553113419175890   0.375000000000000   1.0000000
B2   B   0.782642263444412   0.558206720113074   0.375000000000000   1.0000000
B2   B   0.609987707092549   0.057783421673944   0.375000000000000   1.0000000
B2   B   0.444459306710427   0.555556973442436   0.875000000000000   1.0000000
B2   B   0.942178320977249   0.054069495573035   0.375000000000000   1.0000000
B2   B   0.277774313811041   0.722253778053848   0.875000000000000   1.0000000
B2   B   0.111211012503453   0.222336774207628   0.875000000000000   1.0000000
B2   B   0.444477551799493   0.222377407864769   0.875000000000000   1.0000000
B2   B   0.611034181122560   0.722127327709534   0.875000000000000   1.0000000
B2   B   0.944386809887389   0.722217088480745   0.875000000000000   1.0000000
B2   B   0.777732724947888   0.222327605674013   0.875000000000000   1.0000000
B2   B   0.113419902566931   0.722945463303792   0.375000000000000   1.0000000
B2   B   0.445407306873176   0.720148805519590   0.375000000000000   1.0000000
B2   B   0.274717167400196   0.220863963250386   0.375000000000000   1.0000000
B2   B   0.778227248607018   0.719830797321264   0.375000000000000   1.0000000
B2   B   0.609000426930673   0.230572274465255   0.375000000000000   1.0000000
B2   B   0.942244762666736   0.222108295813424   0.375000000000000   1.0000000
B2   B   0.111186724358854   0.388992657399956   0.875000000000000   1.0000000
B2   B   0.277778400966606   0.888947123807856   0.875000000000000   1.0000000
B2   B   0.611058914801198   0.888865303875728   0.875000000000000   1.0000000
B2   B   0.444529298782996   0.389025392605975   0.875000000000000   1.0000000
B2   B   0.944413766062022   0.888880320088547   0.875000000000000   1.0000000
B2   B   0.112534596183230   0.889532945530615   0.375000000000000   1.0000000
B2   B   0.777694801138071   0.389001810525593   0.875000000000000   1.0000000
B2   B   0.445147487734987   0.889000380779263   0.375000000000000   1.0000000
B2   B   0.276028779458040   0.385636133614091   0.375000000000000   1.0000000
B2   B   0.279773076999472   0.554287561864804   0.375000000000000   1.0000000
B2   B   0.606745388490666   0.412007483800704   0.375000000000000   1.0000000
B2   B   0.776431828763014   0.886634602987738   0.375000000000000   1.0000000
B2   B   0.943556328030548   0.389809616022837   0.375000000000000   1.0000000
B2   B   0.111120304049662   0.555623745800901   0.875000000000000   1.0000000
B2   B   0.277822263871923   0.055660047051379   0.875000000000000   1.0000000
B2   B   0.777677053106278   0.555570500264904   0.875000000000000   1.0000000
B2   B   0.611067921622874   0.055623078115137   0.875000000000000   1.0000000
B2   B   0.944455048492401   0.055594150227649   0.875000000000000   1.0000000
B2   B   0.055572893092965   0.111204317882349   0.125107880712622   1.0000000
B2   B   0.555584928569083   0.610822534741708   0.125910050802401   1.0000000
B2   B   0.389077175594126   0.111512977759510   0.125278590826734   1.0000000
B2   B   0.888493968542690   0.610898787968097   0.125460663729703   1.0000000
B2   B   0.722209323551203   0.111138441627167   0.125265358788728   1.0000000
B2   B   0.055400977360842   0.777705888573797   0.624813083131915   1.0000000
B2   B   0.388969407003392   0.777684742019517   0.624869425206651   1.0000000
B2   B   0.222377245729946   0.277989025332807   0.624650083028551   1.0000000
B2   B   0.722096748420692   0.777604432164553   0.624732504867762   1.0000000
B2   B   0.555755881293899   0.278190884192146   0.624051772647719   1.0000000
B2   B   0.888837254416738   0.277751116441258   0.624779179259979   1.0000000
B2   B   0.222224182564027   0.777743436396085   0.125182262704166   1.0000000
B2   B   0.055579458684338   0.277782987373218   0.125105195695085   1.0000000
B2   B   0.389190531880957   0.278307313223886   0.126410391634031   1.0000000
B2   B   0.555576888590198   0.777605828366468   0.125182222650697   1.0000000
B2   B   0.888663443846189   0.777650195183035   0.125219402448415   1.0000000
B2   B   0.722171325515703   0.277843028238368   0.125327601273463   1.0000000
B2   B   0.055517992712887   0.944502944539772   0.624884739780972   1.0000000
B2   B   0.388972224325823   0.944581322938957   0.624880563317668   1.0000000
B2   B   0.222382419863965   0.444334325378809   0.624812827277482   1.0000000
B2   B   0.555655959672723   0.444475923251949   0.619011945872152   1.0000000
B2   B   0.722184123477296   0.944383142649132   0.624737634275670   1.0000000
B2   B   0.888694954685389   0.444339381580370   0.624702890521221   1.0000000
B2   B   0.055538028769274   0.444352383876479   0.125168174699953   1.0000000
B2   B   0.222267622361094   0.944593685687230   0.125115508303469   1.0000000
B2   B   0.555584746907575   0.944448666086104   0.125228315542651   1.0000000
B2   B   0.389093940399268   0.444354384500420   0.127462357701944   1.0000000
B2   B   0.888813290953096   0.944411930624818   0.125184252970424   1.0000000
B2   B   0.721854656455555   0.444274075392059   0.126083858594711   1.0000000
B2   B   0.222289085212275   0.610960066917982   0.624831764141082   1.0000000
B2   B   0.055572893092965   0.111204317882349   0.624892119287379   1.0000000
B2   B   0.555584928569083   0.610822534741708   0.624089949197597   1.0000000
B2   B   0.389077175594126   0.111512977759510   0.624721409173266   1.0000000
B2   B   0.888493968542690   0.610898787968097   0.624539336270294   1.0000000
B2   B   0.055410772623040   0.610981049972425   0.125219969185745   1.0000000
B2   B   0.722209323551203   0.111138441627167   0.624734641211270   1.0000000
B2   B   0.222361729652718   0.111398793154045   0.125213268323441   1.0000000
B2   B   0.389069595826257   0.610866935535517   0.125282283159321   1.0000000
B2   B   0.721791879180625   0.610860562859124   0.126044307652221   1.0000000
B2   B   0.555639426789421   0.111314615854721   0.125208775506657   1.0000000
B2   B   0.389069595826257   0.610866935535517   0.624717716840678   1.0000000
B2   B   0.888857295539976   0.111107380485363   0.125213808336782   1.0000000
B2   B   0.222224182564027   0.777743436396085   0.624817737295834   1.0000000
B2   B   0.055579458684338   0.277782987373218   0.624894804304913   1.0000000
B2   B   0.389190531880957   0.278307313223886   0.623589608365969   1.0000000
B2   B   0.555576888590198   0.777605828366468   0.624817777349301   1.0000000
B2   B   0.888663443846189   0.777650195183035   0.624780597551584   1.0000000
B2   B   0.722171325515703   0.277843028238368   0.624672398726536   1.0000000
B2   B   0.055400977360842   0.777705888573797   0.125186916868085   1.0000000
B2   B   0.388969407003392   0.777684742019517   0.125130574793347   1.0000000
B2   B   0.222377245729946   0.277989025332807   0.125349916971450   1.0000000
B2   B   0.722096748420692   0.777604432164553   0.125267495132237   1.0000000
B2   B   0.555755881293899   0.278190884192146   0.125948227352282   1.0000000
B2   B   0.888837254416738   0.277751116441258   0.125220820740020   1.0000000
B2   B   0.055538028769274   0.444352383876479   0.624831825300049   1.0000000
B2   B   0.222267622361094   0.944593685687230   0.624884491696532   1.0000000
B2   B   0.555584746907575   0.944448666086104   0.624771684457348   1.0000000
B2   B   0.389093940399268   0.444354384500420   0.622537642298056   1.0000000
B2   B   0.888813290953096   0.944411930624818   0.624815747029575   1.0000000
B2   B   0.055517992712887   0.944502944539772   0.125115260219026   1.0000000
B2   B   0.721854656455555   0.444274075392059   0.623916141405288   1.0000000
B2   B   0.388972224325823   0.944581322938957   0.125119436682332   1.0000000
B2   B   0.222382419863965   0.444334325378809   0.125187172722518   1.0000000
B2   B   0.222289085212275   0.610960066917982   0.125168235858919   1.0000000
B2   B   0.555655959672723   0.444475923251949   0.130988054127847   1.0000000
B2   B   0.722184123477296   0.944383142649132   0.125262365724331   1.0000000
B2   B   0.888694954685389   0.444339381580370   0.125297109478778   1.0000000
B2   B   0.055410772623040   0.610981049972425   0.624780030814255   1.0000000
B2   B   0.222361729652718   0.111398793154045   0.624786731676558   1.0000000
B2   B   0.721791879180625   0.610860562859124   0.623955692347778   1.0000000
B2   B   0.555639426789421   0.111314615854721   0.624791224493342   1.0000000
B2   B   0.888857295539976   0.111107380485363   0.624786191663218   1.0000000


