data_1
_audit_creation_method   'vasp2cif'
_cell_length_a    14.93631414619966
_cell_length_b    14.936314146199727
_cell_length_c    13.341276283792837
_cell_angle_alpha    90.0
_cell_angle_beta    90.0
_cell_angle_gamma    119.99999999999984

_symmetry_space_group_name_H-M    'P 1'
loop_
_atom_site_label
_atom_site_type_symbol
_atom_site_fract_x
_atom_site_fract_y
_atom_site_fract_z
_atom_site_occupancy
S2   S   0.444444444444443   0.388888888888886   0.375000000000000   1.0000000
N2   N   0.111113518604789   0.055533021278790   0.123684455862032   1.0000000
N2   N   0.611122823388600   0.555554940390403   0.124133650813776   1.0000000
N2   N   0.444419502674021   0.055533021278790   0.123684455862032   1.0000000
N2   N   0.944459767220937   0.555571222372357   0.124187711431594   1.0000000
N2   N   0.777777777777779   0.055555555555557   0.124396708239326   1.0000000
N2   N   0.111111111111114   0.722222222222221   0.625455997614510   1.0000000
N2   N   0.444419502674021   0.722219814728434   0.626315544137762   1.0000000
N2   N   0.277778392943023   0.222210509944875   0.625866349186354   1.0000000
N2   N   0.777800312054443   0.722219814728434   0.626315544137760   1.0000000
N2   N   0.611104677441644   0.222228655891840   0.626388880724662   1.0000000
N2   N   0.944464361012255   0.222243366810927   0.625938108016243   1.0000000
N2   N   0.277762110961221   0.722221878182451   0.124187711431594   1.0000000
N2   N   0.111123978450220   0.222228655891840   0.123611119275442   1.0000000
N2   N   0.444432117001798   0.222210509944873   0.124133650813773   1.0000000
N2   N   0.611104677441644   0.722209354882959   0.123611119275446   1.0000000
N2   N   0.944459767220937   0.722221878182451   0.124187711431594   1.0000000
N2   N   0.777779005798569   0.222243366810927   0.124061891983897   1.0000000
N2   N   0.111111455150956   0.888873566112392   0.625812288568241   1.0000000
N2   N   0.444419800192772   0.888876566763278   0.626012361551218   1.0000000
N2   N   0.277778392943023   0.388901216331530   0.625866349186354   1.0000000
N2   N   0.611122823388600   0.388901216331530   0.625866349186354   1.0000000
N2   N   0.777779005798569   0.888868972321074   0.625938108016227   1.0000000
N2   N   0.944456766570051   0.388913533140557   0.626012361551218   1.0000000
N2   N   0.111113518604787   0.388913830659308   0.123684455862032   1.0000000
N2   N   0.277762110961221   0.888873566112484   0.124187711431594   1.0000000
N2   N   0.611089966522535   0.888868972321074   0.124061891983897   1.0000000
N2   N   0.444444444444443   0.388888888888886   0.127035109727113   1.0000000
N2   N   0.944456766570051   0.888876566763278   0.123987638448742   1.0000000
N2   N   0.777800312054451   0.388913830659308   0.123684455862033   1.0000000
N2   N   0.277762219084849   0.555571114248523   0.626251661983286   1.0000000
N2   N   0.111113518604786   0.055533021278790   0.626315544137760   1.0000000
N2   N   0.611122823388596   0.555554940390403   0.625866349186353   1.0000000
N2   N   0.444419502674021   0.055533021278790   0.626315544137762   1.0000000
N2   N   0.944459767220937   0.555571222372357   0.625812288568241   1.0000000
N2   N   0.111111455150956   0.555571222372357   0.124187711431594   1.0000000
N2   N   0.777777777777779   0.055555555555557   0.625603291760623   1.0000000
N2   N   0.277762219084849   0.055524438169924   0.123748338016892   1.0000000
N2   N   0.444432117001798   0.555554940390403   0.124133650813775   1.0000000
N2   N   0.777808895163637   0.555571114248523   0.123748338016892   1.0000000
N2   N   0.611089966522535   0.055554327534693   0.124061891983897   1.0000000
N2   N   0.444432117001798   0.555554940390403   0.625866349186354   1.0000000
N2   N   0.944464361012255   0.055554327534693   0.124061891983897   1.0000000
N2   N   0.277762110961221   0.722221878182451   0.625812288568241   1.0000000
N2   N   0.111123978450220   0.222228655891840   0.626388880724662   1.0000000
N2   N   0.444432117001798   0.222210509944875   0.625866349186354   1.0000000
N2   N   0.611104677441644   0.722209354882959   0.626388880724662   1.0000000
N2   N   0.944459767220937   0.722221878182451   0.625812288568241   1.0000000
N2   N   0.777779005798569   0.222243366810927   0.625938108016243   1.0000000
N2   N   0.111111111111114   0.722222222222221   0.124544002385446   1.0000000
N2   N   0.444419502674021   0.722219814728434   0.123684455862026   1.0000000
N2   N   0.277778392943023   0.222210509944874   0.124133650813775   1.0000000
N2   N   0.777800312054443   0.722219814728434   0.123684455862032   1.0000000
N2   N   0.611104677441644   0.222228655891840   0.123611119275446   1.0000000
N2   N   0.944464361012255   0.222243366810919   0.124061891983897   1.0000000
N2   N   0.111113518604787   0.388913830659308   0.626315544137762   1.0000000
N2   N   0.277762110961221   0.888873566112392   0.625812288568241   1.0000000
N2   N   0.611089966522535   0.888868972321074   0.625938108016243   1.0000000
N2   N   0.444444444444443   0.388888888888886   0.622964890272672   1.0000000
N2   N   0.944456766570051   0.888876566763278   0.626012361551218   1.0000000
N2   N   0.111111455150956   0.888873566112484   0.124187711431595   1.0000000
N2   N   0.777800312054443   0.388913830659308   0.626315544137760   1.0000000
N2   N   0.444419800192772   0.888876566763278   0.123987638448742   1.0000000
N2   N   0.277778392943023   0.388901216331530   0.124133650813774   1.0000000
N2   N   0.277762219084849   0.555571114248523   0.123748338016889   1.0000000
N2   N   0.611122823388596   0.388901216331530   0.124133650813777   1.0000000
N2   N   0.777779005798569   0.888868972321074   0.124061891983897   1.0000000
N2   N   0.944456766570051   0.388913533140557   0.123987638448742   1.0000000
N2   N   0.111111455150956   0.555571222372357   0.625812288568241   1.0000000
N2   N   0.277762219084849   0.055524438169924   0.626251661983284   1.0000000
N2   N   0.777808895163637   0.555571114248523   0.626251661983286   1.0000000
N2   N   0.611089966522535   0.055554327534693   0.625938108016243   1.0000000
N2   N   0.944464361012255   0.055554327534693   0.625938108016243   1.0000000
N2   N   0.054885222205475   0.110637240138517   0.375000000000000   1.0000000
N2   N   0.556182205184228   0.612364410368276   0.375000000000000   1.0000000
N2   N   0.388481656858813   0.109132209651580   0.375000000000000   1.0000000
N2   N   0.889458023112280   0.611395678222872   0.375000000000000   1.0000000
N2   N   0.722328706819844   0.111004626513393   0.375000000000000   1.0000000
N2   N   0.055553004092114   0.777780329241083   0.875000000000000   1.0000000
N2   N   0.388895986615217   0.777781808928089   0.875000000000000   1.0000000
N2   N   0.222218802425281   0.277776067879224   0.875000000000000   1.0000000
N2   N   0.722224594585986   0.777785707867160   0.875000000000000   1.0000000
N2   N   0.555557265454086   0.277776067879224   0.875000000000000   1.0000000
N2   N   0.888886695790890   0.277773391582100   0.875000000000000   1.0000000
N2   N   0.222135534259147   0.777734433796340   0.375000000000000   1.0000000
N2   N   0.054885222205475   0.277581315400280   0.375000000000000   1.0000000
N2   N   0.384640524033762   0.269281048067643   0.375000000000000   1.0000000
N2   N   0.555752017933187   0.778448111127984   0.375000000000000   1.0000000
N2   N   0.889422671211136   0.778261070133006   0.375000000000000   1.0000000
N2   N   0.722696093195001   0.277581315400280   0.375000000000000   1.0000000
N2   N   0.055551524405198   0.944447511020302   0.875000000000000   1.0000000
N2   N   0.388895986615217   0.944447511020302   0.875000000000000   1.0000000
N2   N   0.222221411101622   0.444437319282595   0.875000000000000   1.0000000
N2   N   0.555545951300528   0.444439642316928   0.875000000000000   1.0000000
N2   N   0.722224459335857   0.944448918671395   0.875000000000000   1.0000000
N2   N   0.888885822313027   0.444437346718112   0.875000000000000   1.0000000
N2   N   0.055072263200578   0.444494934411616   0.375000000000000   1.0000000
N2   N   0.221937655110476   0.943875310221051   0.375000000000000   1.0000000
N2   N   0.555683311468445   0.944508322401010   0.375000000000000   1.0000000
N2   N   0.384640524033762   0.448692809299567   0.375000000000000   1.0000000
N2   N   0.888825010932318   0.944508322401010   0.375000000000000   1.0000000
N2   N   0.724201123681519   0.444851676474512   0.375000000000000   1.0000000
N2   N   0.222225746958670   0.611107586375001   0.875000000000000   1.0000000
N2   N   0.055547625466106   0.111108738747269   0.875000000000000   1.0000000
N2   N   0.555557265454086   0.611114530908223   0.875000000000000   1.0000000
N2   N   0.388896014050733   0.111117425152357   0.875000000000000   1.0000000
N2   N   0.888881839416305   0.611107586375001   0.875000000000000   1.0000000
N2   N   0.055598899537095   0.611197799073999   0.375000000000000   1.0000000
N2   N   0.722224459335857   0.111108873997687   0.875000000000000   1.0000000
N2   N   0.220650552792722   0.109132209651581   0.375000000000000   1.0000000
N2   N   0.388481656858817   0.612682780540663   0.375000000000000   1.0000000
N2   N   0.724201123681519   0.612682780540663   0.375000000000000   1.0000000
N2   N   0.555752017933187   0.110637240138517   0.375000000000000   1.0000000
N2   N   0.388896014050733   0.611111922231503   0.875000000000000   1.0000000
N2   N   0.888675919693359   0.111004626513397   0.375000000000000   1.0000000
N2   N   0.222227325149064   0.777780329241083   0.875000000000000   1.0000000
N2   N   0.055547625466106   0.277772220052309   0.875000000000000   1.0000000
N2   N   0.388893691016400   0.277787382032750   0.875000000000000   1.0000000
N2   N   0.555561113281047   0.777785707867160   0.875000000000000   1.0000000
N2   N   0.888885822313027   0.777781808928089   0.875000000000000   1.0000000
N2   N   0.722224594585986   0.277772220052309   0.875000000000000   1.0000000
N2   N   0.055598899537095   0.777734433796332   0.375000000000000   1.0000000
N2   N   0.388838398921713   0.778261070133006   0.375000000000000   1.0000000
N2   N   0.220968922965025   0.277151128149198   0.375000000000000   1.0000000
N2   N   0.722696093195001   0.778448111127941   0.375000000000000   1.0000000
N2   N   0.556182205184228   0.277151128149198   0.375000000000000   1.0000000
N2   N   0.888825010932318   0.277650021864610   0.375000000000000   1.0000000
N2   N   0.055551524405198   0.444437346718112   0.875000000000000   1.0000000
N2   N   0.222225746958670   0.944451493917024   0.875000000000000   1.0000000
N2   N   0.555559941751136   0.944446637542438   0.875000000000000   1.0000000
N2   N   0.388893691016400   0.444439642316928   0.875000000000000   1.0000000
N2   N   0.888886695790890   0.944446637542438   0.875000000000000   1.0000000
N2   N   0.055072263200578   0.943910662122192   0.375000000000000   1.0000000
N2   N   0.722215908180972   0.444437319282595   0.875000000000000   1.0000000
N2   N   0.388838398921713   0.943910662122192   0.375000000000000   1.0000000
N2   N   0.220650552792722   0.444851676474512   0.375000000000000   1.0000000
N2   N   0.221937655110476   0.611395678222872   0.375000000000000   1.0000000
N2   N   0.564052285265805   0.448692809299567   0.375000000000000   1.0000000
N2   N   0.722328706819844   0.944657413639970   0.375000000000000   1.0000000
N2   N   0.889422671211136   0.444494934411616   0.375000000000000   1.0000000
N2   N   0.055553004092114   0.611106008184210   0.875000000000000   1.0000000
N2   N   0.222221411101622   0.111117425152357   0.875000000000000   1.0000000
N2   N   0.722215908180972   0.611111922231503   0.875000000000000   1.0000000
N2   N   0.555561113281047   0.111108738747269   0.875000000000000   1.0000000
N2   N   0.888884414661933   0.111108873997687   0.875000000000000   1.0000000
B2   B   0.108800334357836   0.053752900454605   0.375000000000000   1.0000000
B2   B   0.616446424907475   0.562973212578811   0.375000000000000   1.0000000
B2   B   0.444952566097032   0.053752900454605   0.375000000000000   1.0000000
B2   B   0.944985113813484   0.555632002732682   0.375000000000000   1.0000000
B2   B   0.777777777777779   0.055555555555557   0.375000000000000   1.0000000
B2   B   0.111111111111114   0.722222222222221   0.875000000000000   1.0000000
B2   B   0.444468454590421   0.722293323170651   0.875000000000000   1.0000000
B2   B   0.277699149175881   0.222158271944510   0.875000000000000   1.0000000
B2   B   0.777824868580088   0.722293323170651   0.875000000000000   1.0000000
B2   B   0.611161934647840   0.222171398685782   0.875000000000000   1.0000000
B2   B   0.944394721319273   0.222190474791023   0.875000000000000   1.0000000
B2   B   0.277701330600485   0.722686444414094   0.375000000000000   1.0000000
B2   B   0.108193348837924   0.220763341085632   0.375000000000000   1.0000000
B2   B   0.446526787670998   0.216886908425717   0.375000000000000   1.0000000
B2   B   0.612569992247522   0.725139984495609   0.375000000000000   1.0000000
B2   B   0.944985113813484   0.722686444414094   0.375000000000000   1.0000000
B2   B   0.778144724195230   0.221683985451051   0.375000000000000   1.0000000
B2   B   0.111090560747404   0.888868614246357   0.875000000000000   1.0000000
B2   B   0.444467484882015   0.888900409107800   0.875000000000000   1.0000000
B2   B   0.277699149175881   0.388874210564479   0.875000000000000   1.0000000
B2   B   0.611175061389091   0.388874210564479   0.875000000000000   1.0000000
B2   B   0.777795753471595   0.888938612014056   0.875000000000000   1.0000000
B2   B   0.944432924225529   0.388865848451314   0.875000000000000   1.0000000
B2   B   0.108800334357838   0.388380767236297   0.375000000000000   1.0000000
B2   B   0.277701330600485   0.888348219519845   0.375000000000000   1.0000000
B2   B   0.611649347881838   0.889794072077569   0.375000000000000   1.0000000
B2   B   0.944263441717373   0.889069891615955   0.375000000000000   1.0000000
B2   B   0.779580432878742   0.388380767236297   0.375000000000000   1.0000000
B2   B   0.277747795287582   0.555585538045539   0.875000000000000   1.0000000
B2   B   0.111040010162773   0.055508464753253   0.875000000000000   1.0000000
B2   B   0.611175061389091   0.555634184157408   0.875000000000000   1.0000000
B2   B   0.444468454590421   0.055508464753253   0.875000000000000   1.0000000
B2   B   0.944464719086900   0.555555279834353   0.875000000000000   1.0000000
B2   B   0.110646888919290   0.555632002732682   0.375000000000000   1.0000000
B2   B   0.777777777777779   0.055555555555557   0.875000000000000   1.0000000
B2   B   0.276723393072903   0.053446786145805   0.375000000000000   1.0000000
B2   B   0.446526787670998   0.562973212578811   0.375000000000000   1.0000000
B2   B   0.779886547187530   0.556609940260173   0.375000000000000   1.0000000
B2   B   0.611649347881838   0.055188609138006   0.375000000000000   1.0000000
B2   B   0.444459122768850   0.555634184157408   0.875000000000000   1.0000000
B2   B   0.943539261255760   0.055188609138006   0.375000000000000   1.0000000
B2   B   0.277778053498805   0.722242772585805   0.875000000000000   1.0000000
B2   B   0.111009464038242   0.222171398685782   0.875000000000000   1.0000000
B2   B   0.444459122768850   0.222158271944510   0.875000000000000   1.0000000
B2   B   0.611161934647840   0.722323869294800   0.875000000000000   1.0000000
B2   B   0.944464719086971   0.722242772585805   0.875000000000000   1.0000000
B2   B   0.777795753471595   0.222190474791023   0.875000000000000   1.0000000
B2   B   0.111111111111114   0.722222222222221   0.375000000000000   1.0000000
B2   B   0.444952566097032   0.724532998975812   0.375000000000000   1.0000000
B2   B   0.270360120754504   0.216886908425717   0.375000000000000   1.0000000
B2   B   0.779580432878742   0.724532998975812   0.375000000000000   1.0000000
B2   B   0.612569992247522   0.220763341085632   0.375000000000000   1.0000000
B2   B   0.943539261255760   0.221683985451051   0.375000000000000   1.0000000
B2   B   0.111040010162773   0.388864878742908   0.875000000000000   1.0000000
B2   B   0.277778053498805   0.888868614246357   0.875000000000000   1.0000000
B2   B   0.611142858542066   0.888938612014056   0.875000000000000   1.0000000
B2   B   0.444444444444443   0.388888888888886   0.875000000000000   1.0000000
B2   B   0.944432924225529   0.888900409107800   0.875000000000000   1.0000000
B2   B   0.110646888919290   0.888348219519845   0.375000000000000   1.0000000
B2   B   0.777824868580088   0.388864878742908   0.875000000000000   1.0000000
B2   B   0.444806449898499   0.889069891615955   0.375000000000000   1.0000000
B2   B   0.270360120754490   0.386806545662330   0.375000000000000   1.0000000
B2   B   0.276723393072903   0.556609940260173   0.375000000000000   1.0000000
B2   B   0.616446424907475   0.386806545662330   0.375000000000000   1.0000000
B2   B   0.778144724195230   0.889794072077569   0.375000000000000   1.0000000
B2   B   0.944263441717373   0.388526883434829   0.375000000000000   1.0000000
B2   B   0.111090560747404   0.555555279834353   0.875000000000000   1.0000000
B2   B   0.277747795287582   0.055495590575215   0.875000000000000   1.0000000
B2   B   0.777837742758172   0.555585538045539   0.875000000000000   1.0000000
B2   B   0.611142858542074   0.055537579861599   0.875000000000000   1.0000000
B2   B   0.944394721319273   0.055537579861599   0.875000000000000   1.0000000
B2   B   0.055406526586679   0.110977449301136   0.123232759734801   1.0000000
B2   B   0.555693979720024   0.611387959439564   0.122934830019423   1.0000000
B2   B   0.388769457688906   0.110771867727101   0.122982415380127   1.0000000
B2   B   0.889109407375107   0.611221370354174   0.123552297379230   1.0000000
B2   B   0.722244261297827   0.111089072035512   0.123826528833521   1.0000000
B2   B   0.055586165746164   0.777747167587168   0.626027706805634   1.0000000
B2   B   0.388814187119835   0.777844950579165   0.626500606421786   1.0000000
B2   B   0.221945373893517   0.277639353613554   0.627065169980633   1.0000000
B2   B   0.722355884032237   0.777926806746722   0.626767240265375   1.0000000
B2   B   0.555693979720024   0.277639353613554   0.627065169980633   1.0000000
B2   B   0.888898835609944   0.277797671220319   0.626350225780331   1.0000000
B2   B   0.222161001840967   0.777747167587168   0.123972293194420   1.0000000
B2   B   0.055406526586679   0.277762410618909   0.123232759734801   1.0000000
B2   B   0.388692554244850   0.277385108489496   0.123500444043266   1.0000000
B2   B   0.555570922714422   0.777926806746722   0.123232759734801   1.0000000
B2   B   0.889030763459242   0.777844950579165   0.123499393578203   1.0000000
B2   B   0.722355884032237   0.277762410618917   0.123232759734801   1.0000000
B2   B   0.055488382754293   0.944302569874086   0.626500606421786   1.0000000
B2   B   0.388814187119835   0.944302569874086   0.626500606421786   1.0000000
B2   B   0.222002410038227   0.444563875644423   0.627017584620040   1.0000000
B2   B   0.555948224843629   0.444640779088479   0.626499555956701   1.0000000
B2   B   0.722244261297827   0.944488522595695   0.626173471166547   1.0000000
B2   B   0.889030763459242   0.444519146213493   0.626500606421786   1.0000000
B2   B   0.055488382754294   0.444519146213493   0.123499393578203   1.0000000
B2   B   0.222111962979169   0.944223925958220   0.123552297379230   1.0000000
B2   B   0.555535662113139   0.944434497723385   0.123649774219699   1.0000000
B2   B   0.388692554244850   0.444640779088479   0.123500444043265   1.0000000
B2   B   0.888898835609944   0.944434497723385   0.123649774219699   1.0000000
B2   B   0.722561465606340   0.444563875644423   0.122982415380123   1.0000000
B2   B   0.222111962979169   0.611221370354174   0.626447702620770   1.0000000
B2   B   0.055406526586680   0.110977449301136   0.626767240265375   1.0000000
B2   B   0.555693979720024   0.611387959439564   0.627065169980633   1.0000000
B2   B   0.388769457688884   0.110771867727101   0.627017584620040   1.0000000
B2   B   0.889109407375107   0.611221370354174   0.626447702620770   1.0000000
B2   B   0.055586165746164   0.611172331492366   0.123972293194420   1.0000000
B2   B   0.722244261297810   0.111089072035512   0.626173471166547   1.0000000
B2   B   0.222002410038227   0.110771867727101   0.122982415380126   1.0000000
B2   B   0.388769457688906   0.611330923295165   0.122982415380126   1.0000000
B2   B   0.722561465606340   0.611330923295165   0.122982415380125   1.0000000
B2   B   0.555570922714422   0.110977449301138   0.123232759734801   1.0000000
B2   B   0.388769457688884   0.611330923295165   0.627017584620040   1.0000000
B2   B   0.888844810737634   0.111089072035512   0.123826528833521   1.0000000
B2   B   0.222161001840967   0.777747167587168   0.626027706805634   1.0000000
B2   B   0.055406526586679   0.277762410618908   0.626767240265375   1.0000000
B2   B   0.388692554244850   0.277385108489496   0.626499555956701   1.0000000
B2   B   0.555570922714422   0.777926806746722   0.626767240265375   1.0000000
B2   B   0.889030763459242   0.777844950579165   0.626500606421786   1.0000000
B2   B   0.722355884032237   0.277762410618909   0.626767240265375   1.0000000
B2   B   0.055586165746164   0.777747167587168   0.123972293194420   1.0000000
B2   B   0.388814187119835   0.777844950579165   0.123499393578203   1.0000000
B2   B   0.221945373893517   0.277639353613554   0.122934830019432   1.0000000
B2   B   0.722355884032237   0.777926806746722   0.123232759734801   1.0000000
B2   B   0.555693979720024   0.277639353613554   0.122934830019432   1.0000000
B2   B   0.888898835609944   0.277797671220319   0.123649774219699   1.0000000
B2   B   0.055488382754293   0.444519146213493   0.626500606421786   1.0000000
B2   B   0.222111962979169   0.944223925958221   0.626447702620770   1.0000000
B2   B   0.555535662113139   0.944434497723385   0.626350225780331   1.0000000
B2   B   0.388692554244850   0.444640779088479   0.626499555956701   1.0000000
B2   B   0.888898835609944   0.944434497723385   0.626350225780331   1.0000000
B2   B   0.055488382754294   0.944302569874087   0.123499393578203   1.0000000
B2   B   0.722561465606340   0.444563875644423   0.627017584620040   1.0000000
B2   B   0.388814187119835   0.944302569874086   0.123499393578203   1.0000000
B2   B   0.222002410038227   0.444563875644423   0.122982415380126   1.0000000
B2   B   0.222111962979169   0.611221370354174   0.123552297379230   1.0000000
B2   B   0.555948224843629   0.444640779088479   0.123500444043271   1.0000000
B2   B   0.722244261297827   0.944488522595695   0.123826528833521   1.0000000
B2   B   0.889030763459242   0.444519146213493   0.123499393578203   1.0000000
B2   B   0.055586165746164   0.611172331492366   0.626027706805634   1.0000000
B2   B   0.222002410038227   0.110771867727101   0.627017584620040   1.0000000
B2   B   0.722561465606340   0.611330923295165   0.627017584620040   1.0000000
B2   B   0.555570922714422   0.110977449301138   0.626767240265375   1.0000000
B2   B   0.888844810737634   0.111089072035512   0.626173471166547   1.0000000


