data_1
_audit_creation_method   'vasp2cif'
_cell_length_a    14.93631414619966
_cell_length_b    14.936314146199727
_cell_length_c    13.341276283792837
_cell_angle_alpha    90.0
_cell_angle_beta    90.0
_cell_angle_gamma    119.99999999999984

_symmetry_space_group_name_H-M    'P 1'
loop_
_atom_site_label
_atom_site_type_symbol
_atom_site_fract_x
_atom_site_fract_y
_atom_site_fract_z
_atom_site_occupancy
O2   O   0.555555555555557   0.444444444444443   0.375000000000000   1.0000000
N2   N   0.111121636248803   0.055557065117462   0.125074366696526   1.0000000
N2   N   0.611077818621095   0.555488970575522   0.125750656526805   1.0000000
N2   N   0.444454120693808   0.055558073035858   0.125097095379060   1.0000000
N2   N   0.944441926964143   0.555545879306195   0.125097095379060   1.0000000
N2   N   0.777777376261252   0.055555354797293   0.125056031636895   1.0000000
N2   N   0.111113558856185   0.722223446094755   0.624941943275351   1.0000000
N2   N   0.444454120693808   0.722229380991278   0.624902904620941   1.0000000
N2   N   0.277788939290565   0.222222391371648   0.624794359832015   1.0000000
N2   N   0.777777608628354   0.722211060709437   0.624794359832015   1.0000000
N2   N   0.611100118747754   0.222222391371648   0.624794359832015   1.0000000
N2   N   0.944444645202707   0.222222623738750   0.624943968363105   1.0000000
N2   N   0.277776553905246   0.722223446094755   0.125058056724648   1.0000000
N2   N   0.111123352776524   0.222228343054930   0.125104009893715   1.0000000
N2   N   0.444443320416083   0.222219974165501   0.125314269222340   1.0000000
N2   N   0.611100118747754   0.722211060709437   0.125205640167985   1.0000000
N2   N   0.944441926964143   0.722229380991278   0.125097095379060   1.0000000
N2   N   0.777771656945072   0.222228343054930   0.125104009893715   1.0000000
N2   N   0.111111401563241   0.888888598436759   0.624914648237784   1.0000000
N2   N   0.444443863540182   0.888888598436759   0.624914648237784   1.0000000
N2   N   0.277788939290565   0.388899881252245   0.624794359832015   1.0000000
N2   N   0.611077818621095   0.388922181378903   0.624249343473195   1.0000000
N2   N   0.777771656945072   0.888876647223476   0.624895990106284   1.0000000
N2   N   0.944442934882538   0.388897904464670   0.624925633303471   1.0000000
N2   N   0.111121636248803   0.388897904464670   0.125074366696526   1.0000000
N2   N   0.277776553905246   0.888886441143813   0.125058056724648   1.0000000
N2   N   0.611102095535330   0.888878363751197   0.125074366696526   1.0000000
N2   N   0.444511029424476   0.388922181378903   0.125750656526805   1.0000000
N2   N   0.944442934882538   0.888878363751197   0.125074366696526   1.0000000
N2   N   0.777777608628354   0.388899881252245   0.125205640167985   1.0000000
N2   N   0.277770619008722   0.555545879306195   0.624902904620941   1.0000000
N2   N   0.111121636248803   0.055557065117462   0.624925633303471   1.0000000
N2   N   0.611077818621095   0.555488970575522   0.624249343473195   1.0000000
N2   N   0.444454120693808   0.055558073035858   0.624902904620941   1.0000000
N2   N   0.944441926964143   0.555545879306195   0.624902904620941   1.0000000
N2   N   0.111111401563241   0.555556136459820   0.125085351762217   1.0000000
N2   N   0.777777376261252   0.055555354797293   0.624943968363105   1.0000000
N2   N   0.277770619008722   0.055558073035858   0.125097095379060   1.0000000
N2   N   0.444443320416083   0.555556679583917   0.125314269222340   1.0000000
N2   N   0.777780025834498   0.555556679583917   0.125314269222340   1.0000000
N2   N   0.611102095535330   0.055557065117462   0.125074366696526   1.0000000
N2   N   0.444443320416083   0.555556679583917   0.624685730777660   1.0000000
N2   N   0.944444645202707   0.055555354797293   0.125056031636895   1.0000000
N2   N   0.277776553905246   0.722223446094755   0.624941943275351   1.0000000
N2   N   0.111123352776524   0.222228343054930   0.624895990106284   1.0000000
N2   N   0.444443320416083   0.222219974165501   0.624685730777660   1.0000000
N2   N   0.611100118747754   0.722211060709437   0.624794359832015   1.0000000
N2   N   0.944441926964143   0.722229380991278   0.624902904620941   1.0000000
N2   N   0.777771656945072   0.222228343054930   0.624895990106284   1.0000000
N2   N   0.111113558856185   0.722223446094755   0.125058056724648   1.0000000
N2   N   0.444454120693808   0.722229380991278   0.125097095379060   1.0000000
N2   N   0.277788939290565   0.222222391371648   0.125205640167985   1.0000000
N2   N   0.777777608628354   0.722211060709437   0.125205640167985   1.0000000
N2   N   0.611100118747754   0.222222391371648   0.125205640167985   1.0000000
N2   N   0.944444645202707   0.222222623738750   0.125056031636895   1.0000000
N2   N   0.111121636248803   0.388897904464670   0.624925633303471   1.0000000
N2   N   0.277776553905246   0.888886441143813   0.624941943275351   1.0000000
N2   N   0.611102095535330   0.888878363751197   0.624925633303471   1.0000000
N2   N   0.444511029424476   0.388922181378903   0.624249343473195   1.0000000
N2   N   0.944442934882538   0.888878363751197   0.624925633303471   1.0000000
N2   N   0.111111401563241   0.888888598436759   0.125085351762217   1.0000000
N2   N   0.777777608628354   0.388899881252245   0.624794359832015   1.0000000
N2   N   0.444443863540182   0.888888598436759   0.125085351762217   1.0000000
N2   N   0.277788939290565   0.388899881252245   0.125205640167985   1.0000000
N2   N   0.277770619008722   0.555545879306195   0.125097095379060   1.0000000
N2   N   0.611077818621095   0.388922181378903   0.125750656526805   1.0000000
N2   N   0.777771656945072   0.888876647223476   0.125104009893715   1.0000000
N2   N   0.944442934882538   0.388897904464670   0.125074366696526   1.0000000
N2   N   0.111111401563241   0.555556136459820   0.624914648237784   1.0000000
N2   N   0.277770619008722   0.055558073035858   0.624902904620941   1.0000000
N2   N   0.777780025834498   0.555556679583917   0.624685730777660   1.0000000
N2   N   0.611102095535330   0.055557065117462   0.624925633303471   1.0000000
N2   N   0.944444645202707   0.055555354797293   0.624943968363105   1.0000000
N2   N   0.055632390861949   0.111173793854691   0.375000000000000   1.0000000
N2   N   0.555280805220521   0.610230857169026   0.375000000000000   1.0000000
N2   N   0.388897142518907   0.111127618371157   0.375000000000000   1.0000000
N2   N   0.888872381628844   0.611102857481094   0.375000000000000   1.0000000
N2   N   0.722208069659413   0.111173793854691   0.375000000000000   1.0000000
N2   N   0.055552567758256   0.777779823196078   0.875000000000000   1.0000000
N2   N   0.388893922104488   0.777779823196078   0.875000000000000   1.0000000
N2   N   0.222212148998930   0.277772741166132   0.875000000000000   1.0000000
N2   N   0.722227258833868   0.777787851001072   0.875000000000000   1.0000000
N2   N   0.555553775071006   0.277781915933557   0.875000000000000   1.0000000
N2   N   0.888888163364681   0.277775943835631   0.875000000000000   1.0000000
N2   N   0.222222222222221   0.777777777777779   0.375000000000000   1.0000000
N2   N   0.055632390861949   0.277791930340586   0.375000000000000   1.0000000
N2   N   0.389769142830975   0.278383281384840   0.375000000000000   1.0000000
N2   N   0.555533755907976   0.777514313455442   0.375000000000000   1.0000000
N2   N   0.888647224214139   0.777514313455442   0.375000000000000   1.0000000
N2   N   0.722073058603709   0.277926941396290   0.375000000000000   1.0000000
N2   N   0.055559763986455   0.944440236013546   0.875000000000000   1.0000000
N2   N   0.388893922104488   0.944447432241743   0.875000000000000   1.0000000
N2   N   0.222220549994647   0.444440730469739   0.875000000000000   1.0000000
N2   N   0.555555555555557   0.444444444444443   0.875000000000000   1.0000000
N2   N   0.722224056164369   0.944445552862388   0.875000000000000   1.0000000
N2   N   0.888886847141757   0.444440730469739   0.875000000000000   1.0000000
N2   N   0.055531468095636   0.444396269524600   0.375000000000000   1.0000000
N2   N   0.222188191145848   0.944453229840263   0.375000000000000   1.0000000
N2   N   0.555603730475397   0.944468531904362   0.375000000000000   1.0000000
N2   N   0.389769142830975   0.444719194779477   0.375000000000000   1.0000000
N2   N   0.888826206145310   0.944367609138050   0.375000000000000   1.0000000
N2   N   0.721616718615159   0.444719194779477   0.375000000000000   1.0000000
N2   N   0.222220176803920   0.611106077895511   0.875000000000000   1.0000000
N2   N   0.055554447137612   0.111111836635317   0.875000000000000   1.0000000
N2   N   0.555553775071006   0.611105192470783   0.875000000000000   1.0000000
N2   N   0.388897038063740   0.111127409460825   0.875000000000000   1.0000000
N2   N   0.888872590539176   0.611102961936259   0.875000000000000   1.0000000
N2   N   0.055546770159739   0.611068294638924   0.375000000000000   1.0000000
N2   N   0.722224056164369   0.111111836635317   0.875000000000000   1.0000000
N2   N   0.222485686544558   0.111352775785862   0.375000000000000   1.0000000
N2   N   0.388897142518907   0.611102857481094   0.375000000000000   1.0000000
N2   N   0.721616718615159   0.610230857169026   0.375000000000000   1.0000000
N2   N   0.555533755907976   0.111352775785862   0.375000000000000   1.0000000
N2   N   0.388897038063740   0.611102961936259   0.875000000000000   1.0000000
N2   N   0.888888888888886   0.111111111111114   0.375000000000000   1.0000000
N2   N   0.222222222222221   0.777777777777779   0.875000000000000   1.0000000
N2   N   0.055554447137612   0.277775943835631   0.875000000000000   1.0000000
N2   N   0.388894807529216   0.277781915933557   0.875000000000000   1.0000000
N2   N   0.555559269530261   0.777779450005352   0.875000000000000   1.0000000
N2   N   0.888886847141757   0.777779450005352   0.875000000000000   1.0000000
N2   N   0.722227258833868   0.277772741166132   0.875000000000000   1.0000000
N2   N   0.055546770159740   0.777811808854150   0.375000000000000   1.0000000
N2   N   0.388931705361076   0.777811808854150   0.375000000000000   1.0000000
N2   N   0.222520549459245   0.277926941396290   0.375000000000000   1.0000000
N2   N   0.722073058603709   0.777479450540755   0.375000000000000   1.0000000
N2   N   0.555280805220521   0.278383281384840   0.375000000000000   1.0000000
N2   N   0.888826206145310   0.277791930340586   0.375000000000000   1.0000000
N2   N   0.055559763986455   0.444452861306245   0.875000000000000   1.0000000
N2   N   0.222220176803920   0.944447432241743   0.875000000000000   1.0000000
N2   N   0.555547138693753   0.944440236013546   0.875000000000000   1.0000000
N2   N   0.388894807529216   0.444446224928994   0.875000000000000   1.0000000
N2   N   0.888888163364681   0.944445552862388   0.875000000000000   1.0000000
N2   N   0.055531468095636   0.944468531904362   0.375000000000000   1.0000000
N2   N   0.722218084066445   0.444446224928994   0.875000000000000   1.0000000
N2   N   0.388931705361076   0.944453229840263   0.375000000000000   1.0000000
N2   N   0.222485686544558   0.444466244092025   0.375000000000000   1.0000000
N2   N   0.222188191145848   0.611068294638924   0.375000000000000   1.0000000
N2   N   0.722208069659413   0.944367609138050   0.375000000000000   1.0000000
N2   N   0.888647224214139   0.444466244092025   0.375000000000000   1.0000000
N2   N   0.055552567758256   0.611106077895511   0.875000000000000   1.0000000
N2   N   0.222220549994647   0.111113152858243   0.875000000000000   1.0000000
N2   N   0.722218084066445   0.611105192470783   0.875000000000000   1.0000000
N2   N   0.555559269530261   0.111113152858243   0.875000000000000   1.0000000
N2   N   0.888888888888886   0.111111111111114   0.875000000000000   1.0000000
B2   B   0.111003493162699   0.055516426961577   0.375000000000000   1.0000000
B2   B   0.612905269026097   0.559143871385521   0.375000000000000   1.0000000
B2   B   0.444229255806324   0.055267336301596   0.375000000000000   1.0000000
B2   B   0.944732663698402   0.555770744193675   0.375000000000000   1.0000000
B2   B   0.777790425548855   0.055561879441095   0.375000000000000   1.0000000
B2   B   0.111104565319649   0.722218949326486   0.875000000000000   1.0000000
B2   B   0.444438374872515   0.722231263809297   0.875000000000000   1.0000000
B2   B   0.277745578567051   0.222207075944788   0.875000000000000   1.0000000
B2   B   0.777792924055209   0.722254421432952   0.875000000000000   1.0000000
B2   B   0.611128164044407   0.222207075944788   0.875000000000000   1.0000000
B2   B   0.944446512482055   0.222226358297441   0.875000000000000   1.0000000
B2   B   0.277769920814424   0.722230079185575   0.375000000000000   1.0000000
B2   B   0.110919419618647   0.222126376475988   0.375000000000000   1.0000000
B2   B   0.444032321069765   0.221397975472866   0.375000000000000   1.0000000
B2   B   0.611329686311478   0.722642557329834   0.375000000000000   1.0000000
B2   B   0.944732663698402   0.722295252838065   0.375000000000000   1.0000000
B2   B   0.777873623524010   0.222126376475988   0.375000000000000   1.0000000
B2   B   0.111110377791295   0.888889622208703   0.875000000000000   1.0000000
B2   B   0.444445911084090   0.888889622208703   0.875000000000000   1.0000000
B2   B   0.277745578567051   0.388871835955593   0.875000000000000   1.0000000
B2   B   0.611128694971206   0.388871305028792   0.875000000000000   1.0000000
B2   B   0.777790861123480   0.888915055580278   0.875000000000000   1.0000000
B2   B   0.944458498539843   0.388879502320688   0.875000000000000   1.0000000
B2   B   0.111003493162699   0.388820399534452   0.375000000000000   1.0000000
B2   B   0.277769920814424   0.888873174962176   0.375000000000000   1.0000000
B2   B   0.611179600465548   0.888996506837300   0.375000000000000   1.0000000
B2   B   0.440856128614479   0.387094730973900   0.375000000000000   1.0000000
B2   B   0.944483573038424   0.888996506837300   0.375000000000000   1.0000000
B2   B   0.777979537685030   0.388670313688523   0.375000000000000   1.0000000
B2   B   0.277768736190703   0.555561625127483   0.875000000000000   1.0000000
B2   B   0.111087670447516   0.055541501460157   0.875000000000000   1.0000000
B2   B   0.611128694971206   0.555590723275751   0.875000000000000   1.0000000
B2   B   0.444438374872515   0.055540444396546   0.875000000000000   1.0000000
B2   B   0.944459555603451   0.555561625127483   0.875000000000000   1.0000000
B2   B   0.111121752032690   0.555576837398718   0.375000000000000   1.0000000
B2   B   0.777773641702559   0.055553487517947   0.875000000000000   1.0000000
B2   B   0.277704747161935   0.055267336301596   0.375000000000000   1.0000000
B2   B   0.444032321069765   0.555967678930234   0.375000000000000   1.0000000
B2   B   0.778602024527133   0.555967678930234   0.375000000000000   1.0000000
B2   B   0.611179600465548   0.055516426961577   0.375000000000000   1.0000000
B2   B   0.444433660014414   0.555566339985589   0.875000000000000   1.0000000
B2   B   0.944438120558905   0.055561879441095   0.375000000000000   1.0000000
B2   B   0.277781050673516   0.722218949326486   0.875000000000000   1.0000000
B2   B   0.111084944419718   0.222209138876523   0.875000000000000   1.0000000
B2   B   0.444433660014414   0.222200653362161   0.875000000000000   1.0000000
B2   B   0.611128164044407   0.722254421432952   0.875000000000000   1.0000000
B2   B   0.944459555603451   0.722231263809297   0.875000000000000   1.0000000
B2   B   0.777790861123480   0.222209138876523   0.875000000000000   1.0000000
B2   B   0.111126825037824   0.722230079185575   0.375000000000000   1.0000000
B2   B   0.444229255806324   0.722295252838065   0.375000000000000   1.0000000
B2   B   0.277357442670165   0.222020462314971   0.375000000000000   1.0000000
B2   B   0.777979537685030   0.722642557329834   0.375000000000000   1.0000000
B2   B   0.611329686311478   0.222020462314971   0.375000000000000   1.0000000
B2   B   0.944438120558905   0.222209574451144   0.375000000000000   1.0000000
B2   B   0.111087670447516   0.388879502320688   0.875000000000000   1.0000000
B2   B   0.277781050673516   0.888895434680361   0.875000000000000   1.0000000
B2   B   0.611120497679312   0.888912329552483   0.875000000000000   1.0000000
B2   B   0.444409276724250   0.388871305028792   0.875000000000000   1.0000000
B2   B   0.944458498539843   0.888912329552483   0.875000000000000   1.0000000
B2   B   0.111121752032690   0.888878247967309   0.375000000000000   1.0000000
B2   B   0.777792924055209   0.388871835955593   0.875000000000000   1.0000000
B2   B   0.444423162601284   0.888878247967309   0.375000000000000   1.0000000
B2   B   0.277357442670165   0.388670313688523   0.375000000000000   1.0000000
B2   B   0.277704747161935   0.555770744193675   0.375000000000000   1.0000000
B2   B   0.612905269026097   0.387094730973900   0.375000000000000   1.0000000
B2   B   0.777873623524010   0.889080580381352   0.375000000000000   1.0000000
B2   B   0.944483573038424   0.388820399534452   0.375000000000000   1.0000000
B2   B   0.111110377791295   0.555554088915909   0.875000000000000   1.0000000
B2   B   0.277768736190703   0.055540444396546   0.875000000000000   1.0000000
B2   B   0.777799346637837   0.555566339985589   0.875000000000000   1.0000000
B2   B   0.611120497679312   0.055541501460157   0.875000000000000   1.0000000
B2   B   0.944446512482055   0.055553487517947   0.875000000000000   1.0000000
B2   B   0.055533009129424   0.111076552705948   0.125006066571292   1.0000000
B2   B   0.555542463581955   0.611219779798332   0.125094316858398   1.0000000
B2   B   0.388814116938102   0.110961567209540   0.125039778330338   1.0000000
B2   B   0.889038432790460   0.611185883061899   0.125039778330338   1.0000000
B2   B   0.722210210243189   0.111076552705948   0.125006066571292   1.0000000
B2   B   0.055590384585803   0.777778066218445   0.624971837584803   1.0000000
B2   B   0.388854348299309   0.777778066218445   0.624971837584803   1.0000000
B2   B   0.222187987072524   0.277760660202934   0.624984193612655   1.0000000
B2   B   0.722239339797068   0.777812012927475   0.624984193612655   1.0000000
B2   B   0.555542463581955   0.277656017116958   0.624905683141603   1.0000000
B2   B   0.888923447294050   0.277789789756812   0.624993933428706   1.0000000
B2   B   0.222222222222221   0.777777777777779   0.125029597970596   1.0000000
B2   B   0.055533009129424   0.277789789756812   0.125006066571292   1.0000000
B2   B   0.388780220201668   0.277656017116958   0.125094316858398   1.0000000
B2   B   0.555533375911775   0.777823699059395   0.125016587403644   1.0000000
B2   B   0.888956989814291   0.777823699059395   0.125016587403644   1.0000000
B2   B   0.722239339797068   0.277760660202934   0.125015806387347   1.0000000
B2   B   0.055550395184950   0.944449604815051   0.624986995823183   1.0000000
B2   B   0.388854348299309   0.944409615414198   0.624971837584803   1.0000000
B2   B   0.222176300940604   0.444466624088231   0.624983412596363   1.0000000
B2   B   0.555555555555557   0.444444444444443   0.625467582841563   1.0000000
B2   B   0.722210210243189   0.944466990870575   0.624993933428706   1.0000000
B2   B   0.888956989814291   0.444466624088231   0.624983412596363   1.0000000
B2   B   0.055550395184950   0.444434123703237   0.125013004176818   1.0000000
B2   B   0.222221933781554   0.944409615414198   0.125028162415196   1.0000000
B2   B   0.555565876296765   0.944449604815051   0.125013004176818   1.0000000
B2   B   0.388780220201668   0.444457536418046   0.125094316858398   1.0000000
B2   B   0.888923447294050   0.944466990870575   0.125006066571292   1.0000000
B2   B   0.722343982883042   0.444457536418046   0.125094316858398   1.0000000
B2   B   0.222221933781554   0.611145651700692   0.624971837584803   1.0000000
B2   B   0.055533009129424   0.111076552705948   0.624993933428706   1.0000000
B2   B   0.555542463581955   0.611219779798332   0.624905683141603   1.0000000
B2   B   0.388814116938102   0.110961567209540   0.624960221669660   1.0000000
B2   B   0.889038432790460   0.611185883061899   0.624960221669660   1.0000000
B2   B   0.055590384585803   0.611145651700692   0.125028162415196   1.0000000
B2   B   0.722210210243189   0.111076552705948   0.624993933428706   1.0000000
B2   B   0.222176300940604   0.111043010185709   0.125016587403644   1.0000000
B2   B   0.388814116938102   0.611185883061899   0.125039778330338   1.0000000
B2   B   0.722343982883042   0.611219779798332   0.125094316858398   1.0000000
B2   B   0.555533375911775   0.111043010185709   0.125016587403644   1.0000000
B2   B   0.388814116938102   0.611185883061899   0.624960221669660   1.0000000
B2   B   0.888888888888886   0.111111111111114   0.125009564237774   1.0000000
B2   B   0.222222222222221   0.777777777777779   0.624970402029404   1.0000000
B2   B   0.055533009129424   0.277789789756812   0.624993933428706   1.0000000
B2   B   0.388780220201668   0.277656017116958   0.624905683141603   1.0000000
B2   B   0.555533375911775   0.777823699059395   0.624983412596363   1.0000000
B2   B   0.888956989814291   0.777823699059395   0.624983412596363   1.0000000
B2   B   0.722239339797068   0.277760660202934   0.624984193612655   1.0000000
B2   B   0.055590384585803   0.777778066218445   0.125028162415196   1.0000000
B2   B   0.388854348299309   0.777778066218445   0.125028162415196   1.0000000
B2   B   0.222187987072524   0.277760660202934   0.125015806387347   1.0000000
B2   B   0.722239339797068   0.777812012927475   0.125015806387347   1.0000000
B2   B   0.555542463581955   0.277656017116958   0.125094316858398   1.0000000
B2   B   0.888923447294050   0.277789789756812   0.125006066571292   1.0000000
B2   B   0.055550395184950   0.444434123703237   0.624986995823183   1.0000000
B2   B   0.222221933781554   0.944409615414198   0.624971837584803   1.0000000
B2   B   0.555565876296765   0.944449604815051   0.624986995823183   1.0000000
B2   B   0.388780220201668   0.444457536418046   0.624905683141603   1.0000000
B2   B   0.888923447294050   0.944466990870575   0.624993933428706   1.0000000
B2   B   0.055550395184950   0.944449604815051   0.125013004176818   1.0000000
B2   B   0.722343982883042   0.444457536418046   0.624905683141603   1.0000000
B2   B   0.388854348299309   0.944409615414198   0.125028162415196   1.0000000
B2   B   0.222176300940604   0.444466624088231   0.125016587403644   1.0000000
B2   B   0.222221933781554   0.611145651700692   0.125028162415196   1.0000000
B2   B   0.555555555555557   0.444444444444443   0.124532417158436   1.0000000
B2   B   0.722210210243189   0.944466990870575   0.125006066571292   1.0000000
B2   B   0.888956989814291   0.444466624088231   0.125016587403644   1.0000000
B2   B   0.055590384585803   0.611145651700692   0.624971837584803   1.0000000
B2   B   0.222176300940604   0.111043010185709   0.624983412596363   1.0000000
B2   B   0.722343982883042   0.611219779798332   0.624905683141603   1.0000000
B2   B   0.555533375911775   0.111043010185709   0.624983412596363   1.0000000
B2   B   0.888888888888886   0.111111111111114   0.624990435762225   1.0000000


