data_1
_audit_creation_method   'vasp2cif'
_cell_length_a    14.93631414619966
_cell_length_b    14.936314146199727
_cell_length_c    13.341276283792837
_cell_angle_alpha    90.0
_cell_angle_beta    90.0
_cell_angle_gamma    119.99999999999984

_symmetry_space_group_name_H-M    'P 1'
loop_
_atom_site_label
_atom_site_type_symbol
_atom_site_fract_x
_atom_site_fract_y
_atom_site_fract_z
_atom_site_occupancy
As2   As   0.488793347301681   0.411063340317508   0.375000000000000   1.0000000
N2   N   0.111050609856648   0.055511286137762   0.125050371486660   1.0000000
N2   N   0.611037536197651   0.555535093921892   0.123865687185697   1.0000000
N2   N   0.444423229173711   0.055535946000936   0.125019899872486   1.0000000
N2   N   0.944390396972716   0.555532632092107   0.125069975802993   1.0000000
N2   N   0.777759057556294   0.055546195444819   0.125005627038870   1.0000000
N2   N   0.111072380440368   0.722202856886852   0.624975620517060   1.0000000
N2   N   0.444423229173711   0.722220616506111   0.624980100127513   1.0000000
N2   N   0.277675980060345   0.222157926801746   0.625808140635964   1.0000000
N2   N   0.777716431470250   0.722186378784484   0.625080120631424   1.0000000
N2   N   0.611068055460594   0.222189781892603   0.625215167337836   1.0000000
N2   N   0.944404563785140   0.222208061529672   0.624980031380234   1.0000000
N2   N   0.277754098895860   0.722215005122848   0.125030589394275   1.0000000
N2   N   0.111046425312220   0.222189879322775   0.124940924717358   1.0000000
N2   N   0.444394724628500   0.222189886019619   0.124076756105761   1.0000000
N2   N   0.611068055460594   0.722211606901319   0.124784832662164   1.0000000
N2   N   0.944390396972716   0.722191098213938   0.125069975802993   1.0000000
N2   N   0.777746599772043   0.222207619366767   0.125022858015915   1.0000000
N2   N   0.111069260904876   0.888859547691980   0.624953948067417   1.0000000
N2   N   0.444433122098879   0.888883227716100   0.624958512225876   1.0000000
N2   N   0.277675980060345   0.388851386591928   0.625808140635964   1.0000000
N2   N   0.611037536197651   0.388835775609087   0.626134312814303   1.0000000
N2   N   0.777746599772043   0.888872313738604   0.624977141984085   1.0000000
N2   N   0.944396516489023   0.388875656424122   0.624935561252244   1.0000000
N2   N   0.111050609856648   0.388872657052222   0.125050371486660   1.0000000
N2   N   0.277754098895860   0.888872427106339   0.125030589394275   1.0000000
N2   N   0.611097558465971   0.888889358406777   0.125030536791389   1.0000000
N2   N   0.444206720315861   0.388770026824595   0.121699016636582   1.0000000
N2   N   0.944396516489023   0.888854193398230   0.125064438747757   1.0000000
N2   N   0.777716431470250   0.388863386019090   0.124919879368577   1.0000000
N2   N   0.277739512198155   0.555546583087877   0.625056221933168   1.0000000
N2   N   0.111050609856648   0.055511286137762   0.624949628513340   1.0000000
N2   N   0.611037536197651   0.555535093921892   0.626134312814303   1.0000000
N2   N   0.444423229173711   0.055535946000936   0.624980100127513   1.0000000
N2   N   0.944390396972716   0.555532632092107   0.624930024197007   1.0000000
N2   N   0.111069260904876   0.555543046546224   0.125046051932576   1.0000000
N2   N   0.777759057556294   0.055546195444819   0.624994372961130   1.0000000
N2   N   0.277739512198155   0.055526262443619   0.124943778066832   1.0000000
N2   N   0.444394724628500   0.555538171942209   0.124076756105761   1.0000000
N2   N   0.777707536409171   0.555520434871258   0.124792061700107   1.0000000
N2   N   0.611097558465971   0.055541533392522   0.125030536791389   1.0000000
N2   N   0.444394724628500   0.555538171942209   0.625923243894239   1.0000000
N2   N   0.944404563785140   0.055529835588803   0.125019968619759   1.0000000
N2   N   0.277754098895860   0.722215005122848   0.624969410605725   1.0000000
N2   N   0.111046425312220   0.222189879322775   0.625059075282641   1.0000000
N2   N   0.444394724628500   0.222189886019619   0.625923243894239   1.0000000
N2   N   0.611068055460594   0.722211606901319   0.625215167337836   1.0000000
N2   N   0.944390396972716   0.722191098213938   0.624930024197007   1.0000000
N2   N   0.777746599772043   0.222207619366767   0.624977141984085   1.0000000
N2   N   0.111072380440368   0.722202856886852   0.125024379482939   1.0000000
N2   N   0.444423229173711   0.722220616506111   0.125019899872486   1.0000000
N2   N   0.277675980060345   0.222157926801746   0.124191859364036   1.0000000
N2   N   0.777716431470250   0.722186378784484   0.124919879368577   1.0000000
N2   N   0.611068055460594   0.222189781892603   0.124784832662164   1.0000000
N2   N   0.944404563785140   0.222208061529672   0.125019968619759   1.0000000
N2   N   0.111050609856648   0.388872657052222   0.624949628513340   1.0000000
N2   N   0.277754098895860   0.888872427106339   0.624969410605725   1.0000000
N2   N   0.611097558465971   0.888889358406777   0.624969463208611   1.0000000
N2   N   0.444206720315861   0.388770026824595   0.628300983363419   1.0000000
N2   N   0.944396516489023   0.888854193398230   0.624935561252244   1.0000000
N2   N   0.111069260904876   0.888859547691980   0.125046051932576   1.0000000
N2   N   0.777716431470250   0.388863386019090   0.625080120631424   1.0000000
N2   N   0.444433122098879   0.888883227716100   0.125041487774124   1.0000000
N2   N   0.277675980060345   0.388851386591928   0.124191859364036   1.0000000
N2   N   0.277739512198155   0.555546583087877   0.124943778066832   1.0000000
N2   N   0.611037536197651   0.388835775609087   0.123865687185697   1.0000000
N2   N   0.777746599772043   0.888872313738604   0.125022858015915   1.0000000
N2   N   0.944396516489023   0.388875656424122   0.125064438747757   1.0000000
N2   N   0.111069260904876   0.555543046546224   0.624953948067417   1.0000000
N2   N   0.277739512198155   0.055526262443619   0.625056221933168   1.0000000
N2   N   0.777707536409171   0.555520434871258   0.625207938299894   1.0000000
N2   N   0.611097558465971   0.055541533392522   0.624969463208611   1.0000000
N2   N   0.944404563785140   0.055529835588803   0.624980031380234   1.0000000
N2   N   0.058033978226092   0.112446686703246   0.375000000000000   1.0000000
N2   N   0.556678212890456   0.617709889878440   0.375000000000000   1.0000000
N2   N   0.388729841815373   0.105981362835728   0.375000000000000   1.0000000
N2   N   0.888193263231412   0.610763298282375   0.375000000000000   1.0000000
N2   N   0.724339315450424   0.111497096232202   0.375000000000000   1.0000000
N2   N   0.055524600837428   0.777761520271848   0.875000000000000   1.0000000
N2   N   0.388862255902259   0.777767217655930   0.875000000000000   1.0000000
N2   N   0.222191356464133   0.277762344898735   0.875000000000000   1.0000000
N2   N   0.722196278804177   0.777765301560439   0.875000000000000   1.0000000
N2   N   0.555528020329819   0.277761465591792   0.875000000000000   1.0000000
N2   N   0.888862852754809   0.277765894375492   0.875000000000000   1.0000000
N2   N   0.221668167227033   0.777500750280188   0.375000000000000   1.0000000
N2   N   0.058033978226092   0.278920624856182   0.375000000000000   1.0000000
N2   N   0.388395181498031   0.267959203026534   0.375000000000000   1.0000000
N2   N   0.556749471272298   0.781230976717347   0.375000000000000   1.0000000
N2   N   0.889920709331184   0.778855406607464   0.375000000000000   1.0000000
N2   N   0.724211254409772   0.277048430025136   0.375000000000000   1.0000000
N2   N   0.055523856916206   0.944425910869396   0.875000000000000   1.0000000
N2   N   0.388862255902259   0.944428371579665   0.875000000000000   1.0000000
N2   N   0.222188644591385   0.444434072121278   0.875000000000000   1.0000000
N2   N   0.555534569736430   0.444433951534879   0.875000000000000   1.0000000
N2   N   0.722195725544933   0.944431705502859   0.875000000000000   1.0000000
N2   N   0.888864000956723   0.444431517677878   0.875000000000000   1.0000000
N2   N   0.056337853364331   0.445103820454346   0.375000000000000   1.0000000
N2   N   0.221796969365750   0.942997346738844   0.375000000000000   1.0000000
N2   N   0.556730547612266   0.945031940472797   0.375000000000000   1.0000000
N2   N   0.388395181498031   0.453769311804839   0.375000000000000   1.0000000
N2   N   0.891049860820161   0.946117535568061   0.375000000000000   1.0000000
N2   N   0.723370383502940   0.443536115656198   0.375000000000000   1.0000000
N2   N   0.222188960680364   0.611099168895638   0.875000000000000   1.0000000
N2   N   0.055525863954243   0.111094025688814   0.875000000000000   1.0000000
N2   N   0.555528020329819   0.611099888071370   0.875000000000000   1.0000000
N2   N   0.388858529643255   0.111089230936110   0.875000000000000   1.0000000
N2   N   0.888864571512296   0.611098952422823   0.875000000000000   1.0000000
N2   N   0.055083702468793   0.611111671016796   0.375000000000000   1.0000000
N2   N   0.722195725544933   0.111097353375411   0.875000000000000   1.0000000
N2   N   0.222734714291381   0.109837470557948   0.375000000000000   1.0000000
N2   N   0.388729841815373   0.616081812312987   0.375000000000000   1.0000000
N2   N   0.723370383502940   0.613167601180078   0.375000000000000   1.0000000
N2   N   0.556749471272298   0.108851827888287   0.375000000000000   1.0000000
N2   N   0.388858529643255   0.611102632040487   0.875000000000000   1.0000000
N2   N   0.891380304939653   0.112356819136502   0.375000000000000   1.0000000
N2   N   0.222192232892816   0.777762783113072   0.875000000000000   1.0000000
N2   N   0.055525863954243   0.277765171598765   0.875000000000000   1.0000000
N2   N   0.388857214774040   0.277752886078669   0.875000000000000   1.0000000
N2   N   0.555527987125292   0.777766699085298   0.875000000000000   1.0000000
N2   N   0.888864000956723   0.777765816612182   0.875000000000000   1.0000000
N2   N   0.722196278804177   0.277764310577074   0.875000000000000   1.0000000
N2   N   0.055083702468793   0.777305364785325   0.375000000000000   1.0000000
N2   N   0.388904565440755   0.779313517965775   0.375000000000000   1.0000000
N2   N   0.225635209448643   0.279484271390989   0.375000000000000   1.0000000
N2   N   0.724211254409772   0.780496157717974   0.375000000000000   1.0000000
N2   N   0.556678212890456   0.272301656345344   0.375000000000000   1.0000000
N2   N   0.891049860820161   0.278265658585437   0.375000000000000   1.0000000
N2   N   0.055523856916206   0.444431279380144   0.875000000000000   1.0000000
N2   N   0.222188960680364   0.944423125118068   0.875000000000000   1.0000000
N2   N   0.555528737400417   0.944431035366873   0.875000000000000   1.0000000
N2   N   0.388857214774040   0.444437662028706   0.875000000000000   1.0000000
N2   N   0.888862852754809   0.944430291712653   0.875000000000000   1.0000000
N2   N   0.056337853364331   0.944567366243313   0.375000000000000   1.0000000
N2   N   0.722200496593813   0.444433256624757   0.875000000000000   1.0000000
N2   N   0.388904565440755   0.942924380808316   0.375000000000000   1.0000000
N2   N   0.222734714291381   0.446230577066769   0.375000000000000   1.0000000
N2   N   0.221796969365750   0.612132955960241   0.375000000000000   1.0000000
N2   N   0.724339315450424   0.946175552551558   0.375000000000000   1.0000000
N2   N   0.889920709331184   0.444398636057055   0.375000000000000   1.0000000
N2   N   0.055524600837428   0.611096413898915   0.875000000000000   1.0000000
N2   N   0.222188644591385   0.111087905803450   0.875000000000000   1.0000000
N2   N   0.722200496593813   0.611100573302392   0.875000000000000   1.0000000
N2   N   0.555527987125292   0.111094621373330   0.875000000000000   1.0000000
N2   N   0.888863433801522   0.111098383567432   0.875000000000000   1.0000000
B2   B   0.112294356943253   0.055617047833742   0.375000000000000   1.0000000
B2   B   0.614591609761068   0.566290106446955   0.375000000000000   1.0000000
B2   B   0.445341717263196   0.052779759824060   0.375000000000000   1.0000000
B2   B   0.944289396852586   0.555445882728437   0.375000000000000   1.0000000
B2   B   0.780401210933779   0.056867272133558   0.375000000000000   1.0000000
B2   B   0.111086157814047   0.722209745573690   0.875000000000000   1.0000000
B2   B   0.444408720511651   0.722198740923320   0.875000000000000   1.0000000
B2   B   0.277758764317154   0.222214690968594   0.875000000000000   1.0000000
B2   B   0.777747286167524   0.722202824577553   0.875000000000000   1.0000000
B2   B   0.611071558451791   0.222210784848611   0.875000000000000   1.0000000
B2   B   0.944429895515552   0.222214695935687   0.875000000000000   1.0000000
B2   B   0.277697469163579   0.722902173045393   0.375000000000000   1.0000000
B2   B   0.114412484300978   0.223872908817157   0.375000000000000   1.0000000
B2   B   0.444220637100289   0.215290530581789   0.375000000000000   1.0000000
B2   B   0.613324369666923   0.727766466944050   0.375000000000000   1.0000000
B2   B   0.944289396852586   0.722176847457484   0.375000000000000   1.0000000
B2   B   0.780242727542996   0.222256945387587   0.375000000000000   1.0000000
B2   B   0.111086496261953   0.888877834691250   0.875000000000000   1.0000000
B2   B   0.444412598051320   0.888872965692327   0.875000000000000   1.0000000
B2   B   0.277758764317154   0.388877406681889   0.875000000000000   1.0000000
B2   B   0.611066622686169   0.388876451598884   0.875000000000000   1.0000000
B2   B   0.777752104164186   0.888873836979545   0.875000000000000   1.0000000
B2   B   0.944424355681176   0.388878962970377   0.875000000000000   1.0000000
B2   B   0.112294356943253   0.390010642442840   0.375000000000000   1.0000000
B2   B   0.277697469163579   0.888128629451514   0.375000000000000   1.0000000
B2   B   0.613185705241445   0.891300050614151   0.375000000000000   1.0000000
B2   B   0.945769323993748   0.889929803988870   0.375000000000000   1.0000000
B2   B   0.779546054736509   0.388079266427016   0.375000000000000   1.0000000
B2   B   0.277748702728477   0.555536991414020   0.875000000000000   1.0000000
B2   B   0.111094820798449   0.055548939917570   0.875000000000000   1.0000000
B2   B   0.611066622686169   0.555523504420614   0.875000000000000   1.0000000
B2   B   0.444408720511651   0.055543312921666   0.875000000000000   1.0000000
B2   B   0.944420041679324   0.555543067096010   0.875000000000000   1.0000000
B2   B   0.111009109390598   0.556031682796858   0.375000000000000   1.0000000
B2   B   0.777755263047787   0.055544298190565   0.875000000000000   1.0000000
B2   B   0.277689022494350   0.053615305126287   0.375000000000000   1.0000000
B2   B   0.444220637100289   0.562263439851835   0.375000000000000   1.0000000
B2   B   0.777366507408834   0.555349920371089   0.375000000000000   1.0000000
B2   B   0.613185705241445   0.055218987960621   0.375000000000000   1.0000000
B2   B   0.444403431420099   0.555524239648052   0.875000000000000   1.0000000
B2   B   0.947138331232304   0.057210846124576   0.375000000000000   1.0000000
B2   B   0.277749326758669   0.722205882835079   0.875000000000000   1.0000000
B2   B   0.111101293215737   0.222217313274533   0.875000000000000   1.0000000
B2   B   0.444403431420099   0.222212525105390   0.875000000000000   1.0000000
B2   B   0.611071558451791   0.722194106936509   0.875000000000000   1.0000000
B2   B   0.944420041679324   0.722210307916650   0.875000000000000   1.0000000
B2   B   0.777752104164186   0.222211600517969   0.875000000000000   1.0000000
B2   B   0.110715049744598   0.722024191538960   0.375000000000000   1.0000000
B2   B   0.445341717263196   0.725895290772473   0.375000000000000   1.0000000
B2   B   0.279487338259706   0.221398467104052   0.375000000000000   1.0000000
B2   B   0.779546054736509   0.724800121642823   0.375000000000000   1.0000000
B2   B   0.613324369666923   0.218891236056209   0.375000000000000   1.0000000
B2   B   0.947138331232304   0.223260818441064   0.375000000000000   1.0000000
B2   B   0.111094820798449   0.388879214214208   0.875000000000000   1.0000000
B2   B   0.277749326758669   0.888876777256920   0.875000000000000   1.0000000
B2   B   0.611078845734034   0.888870452726605   0.875000000000000   1.0000000
B2   B   0.444406997539162   0.388870165436245   0.875000000000000   1.0000000
B2   B   0.944424355681176   0.888878726044128   0.875000000000000   1.0000000
B2   B   0.111009109390598   0.888310759927069   0.375000000000000   1.0000000
B2   B   0.777747286167524   0.388877794923299   0.875000000000000   1.0000000
B2   B   0.445376231970967   0.889354782652151   0.375000000000000   1.0000000
B2   B   0.279487338259706   0.391422204488983   0.375000000000000   1.0000000
B2   B   0.277689022494350   0.557407050701393   0.375000000000000   1.0000000
B2   B   0.614591609761068   0.381634836647441   0.375000000000000   1.0000000
B2   B   0.780242727542996   0.891319115488738   0.375000000000000   1.0000000
B2   B   0.945769323993748   0.389172853338206   0.375000000000000   1.0000000
B2   B   0.111086496261953   0.555541994904031   0.875000000000000   1.0000000
B2   B   0.277748702728477   0.055545044647792   0.875000000000000   1.0000000
B2   B   0.777744276358534   0.555538804845935   0.875000000000000   1.0000000
B2   B   0.611078845734034   0.055541726340758   0.875000000000000   1.0000000
B2   B   0.944429895515552   0.055548532913200   0.875000000000000   1.0000000
B2   B   0.055538890555590   0.111107978475803   0.125017731433833   1.0000000
B2   B   0.555448329788582   0.611050793314125   0.124145972320703   1.0000000
B2   B   0.388846420991529   0.111111572276803   0.124754637159850   1.0000000
B2   B   0.888824509147902   0.611078921240622   0.124928788023704   1.0000000
B2   B   0.722200414733856   0.111091737272087   0.124995101186927   1.0000000
B2   B   0.055529628311845   0.777769537971367   0.624988154487875   1.0000000
B2   B   0.388867517113560   0.777765050185715   0.624983418259596   1.0000000
B2   B   0.222190196335966   0.277761764834647   0.625480349427529   1.0000000
B2   B   0.722162730505002   0.777761389597664   0.625151374429603   1.0000000
B2   B   0.555448329788582   0.277730869807786   0.625854027679297   1.0000000
B2   B   0.888866479331611   0.277759282947598   0.624989913466964   1.0000000
B2   B   0.222206392673377   0.777769863003352   0.125002662001584   1.0000000
B2   B   0.055538890555590   0.277764245413122   0.125017731433833   1.0000000
B2   B   0.388763050203310   0.277733656599464   0.123401602656981   1.0000000
B2   B   0.555513915845109   0.777768099785434   0.124928407668622   1.0000000
B2   B   0.888838448959970   0.777758882871437   0.124979186058068   1.0000000
B2   B   0.722162730505002   0.277734674240666   0.124848625570398   1.0000000
B2   B   0.055530991886893   0.944441994128818   0.624947586317108   1.0000000
B2   B   0.388867517113560   0.944435800261175   0.624983418259596   1.0000000
B2   B   0.222187785429254   0.444406663921109   0.625136401954676   1.0000000
B2   B   0.555317847725516   0.444325590529419   0.626256818498284   1.0000000
B2   B   0.722200414733856   0.944442010795100   0.625004898813074   1.0000000
B2   B   0.888838448959970   0.444412899421869   0.625020813941932   1.0000000
B2   B   0.055530991886893   0.444422331091411   0.125052413682884   1.0000000
B2   B   0.222204812137857   0.944449484985015   0.125016143626734   1.0000000
B2   B   0.555535558758081   0.944434446045705   0.125011836813246   1.0000000
B2   B   0.388763050203310   0.444362726937182   0.123401602656981   1.0000000
B2   B   0.888866479331611   0.944440529717355   0.125010086533035   1.0000000
B2   B   0.722092852118134   0.444383445465755   0.124469433398264   1.0000000
B2   B   0.222204812137857   0.611088660486178   0.624983856373273   1.0000000
B2   B   0.055538890555590   0.111107978475803   0.624982268566167   1.0000000
B2   B   0.555448329788582   0.611050793314125   0.625854027679297   1.0000000
B2   B   0.388846420991529   0.111111572276803   0.625245362840150   1.0000000
B2   B   0.888824509147902   0.611078921240622   0.625071211976296   1.0000000
B2   B   0.055529628311845   0.611093423673821   0.125011845512125   1.0000000
B2   B   0.722200414733856   0.111091737272087   0.625004898813074   1.0000000
B2   B   0.222187785429254   0.111114454841481   0.124863598045324   1.0000000
B2   B   0.388846420991529   0.611068182048069   0.124754637159850   1.0000000
B2   B   0.722092852118134   0.611042739985722   0.124469433398264   1.0000000
B2   B   0.555513915845109   0.111079149393004   0.124928407668622   1.0000000
B2   B   0.388846420991529   0.611068182048069   0.625245362840150   1.0000000
B2   B   0.888876994464692   0.111105163899021   0.124998680639596   1.0000000
B2   B   0.222206392673377   0.777769863003352   0.624997337998415   1.0000000
B2   B   0.055538890555590   0.277764245413122   0.624982268566167   1.0000000
B2   B   0.388763050203310   0.277733656599464   0.626598397343019   1.0000000
B2   B   0.555513915845109   0.777768099785434   0.625071592331378   1.0000000
B2   B   0.888838448959970   0.777758882871437   0.625020813941932   1.0000000
B2   B   0.722162730505002   0.277734674240666   0.625151374429603   1.0000000
B2   B   0.055529628311845   0.777769537971367   0.125011845512125   1.0000000
B2   B   0.388867517113560   0.777765050185715   0.125016581740405   1.0000000
B2   B   0.222190196335966   0.277761764834647   0.124519650572472   1.0000000
B2   B   0.722162730505002   0.777761389597664   0.124848625570398   1.0000000
B2   B   0.555448329788582   0.277730869807786   0.124145972320703   1.0000000
B2   B   0.888866479331611   0.277759282947598   0.125010086533035   1.0000000
B2   B   0.055530991886893   0.444422331091411   0.624947586317108   1.0000000
B2   B   0.222204812137857   0.944449484985015   0.624983856373273   1.0000000
B2   B   0.555535558758081   0.944434446045705   0.624988163186754   1.0000000
B2   B   0.388763050203310   0.444362726937182   0.626598397343019   1.0000000
B2   B   0.888866479331611   0.944440529717355   0.624989913466964   1.0000000
B2   B   0.055530991886893   0.944441994128818   0.125052413682884   1.0000000
B2   B   0.722092852118134   0.444383445465755   0.625530566601734   1.0000000
B2   B   0.388867517113560   0.944435800261175   0.125016581740405   1.0000000
B2   B   0.222187785429254   0.444406663921109   0.124863598045324   1.0000000
B2   B   0.222204812137857   0.611088660486178   0.125016143626734   1.0000000
B2   B   0.555317847725516   0.444325590529419   0.123743181501716   1.0000000
B2   B   0.722200414733856   0.944442010795100   0.124995101186927   1.0000000
B2   B   0.888838448959970   0.444412899421869   0.124979186058068   1.0000000
B2   B   0.055529628311845   0.611093423673821   0.624988154487875   1.0000000
B2   B   0.222187785429254   0.111114454841481   0.625136401954676   1.0000000
B2   B   0.722092852118134   0.611042739985722   0.625530566601734   1.0000000
B2   B   0.555513915845109   0.111079149393004   0.625071592331378   1.0000000
B2   B   0.888876994464692   0.111105163899021   0.625001319360410   1.0000000


