data_1
_audit_creation_method   'vasp2cif'
_cell_length_a    14.93631414619966
_cell_length_b    14.936314146199727
_cell_length_c    13.341276283792837
_cell_angle_alpha    90.0
_cell_angle_beta    90.0
_cell_angle_gamma    119.99999999999984

_symmetry_space_group_name_H-M    'P 1'
loop_
_atom_site_label
_atom_site_type_symbol
_atom_site_fract_x
_atom_site_fract_y
_atom_site_fract_z
_atom_site_occupancy
As2   As   0.444444444444443   0.388888888888886   0.375000000000000   1.0000000
N2   N   0.111102373905517   0.055536595118795   0.125180944877348   1.0000000
N2   N   0.611127703829214   0.555556787563612   0.125033753405508   1.0000000
N2   N   0.444434221213277   0.055536595118795   0.125180944877348   1.0000000
N2   N   0.944457619345730   0.555564707475939   0.125147309230705   1.0000000
N2   N   0.777777777777779   0.055555555555557   0.125072879528143   1.0000000
N2   N   0.111111111111114   0.722222222222221   0.624871554476816   1.0000000
N2   N   0.444434221213277   0.722230959427818   0.624819055122650   1.0000000
N2   N   0.277776545769724   0.222205629504121   0.624966246594492   1.0000000
N2   N   0.777796738214541   0.722230959427818   0.624819055122650   1.0000000
N2   N   0.611103074147264   0.222230259186072   0.624813279611300   1.0000000
N2   N   0.944448750948739   0.222228821868770   0.624914012643187   1.0000000
N2   N   0.277768625857398   0.722226245203128   0.125147309230705   1.0000000
N2   N   0.111127185038809   0.222230259186072   0.125186720388700   1.0000000
N2   N   0.444429083734397   0.222205629504121   0.125033753405508   1.0000000
N2   N   0.611103074147264   0.722206148294527   0.125186720388700   1.0000000
N2   N   0.944457619345730   0.722226245203128   0.125147309230705   1.0000000
N2   N   0.777780070920031   0.222228821868770   0.125085987356813   1.0000000
N2   N   0.111107088130208   0.888875713987598   0.624852690769295   1.0000000
N2   N   0.444435551454372   0.888884442393847   0.624903865789757   1.0000000
N2   N   0.277776545769724   0.388904249598931   0.624966246594492   1.0000000
N2   N   0.611127703829214   0.388904249598931   0.624966246594492   1.0000000
N2   N   0.777780070920031   0.888884582384590   0.624914012643187   1.0000000
N2   N   0.944448890939482   0.388897781878956   0.624903865789757   1.0000000
N2   N   0.111102373905517   0.388899112120051   0.125180944877348   1.0000000
N2   N   0.277768625857398   0.888875713987598   0.125147309230705   1.0000000
N2   N   0.611104511464565   0.888884582384590   0.125085987356813   1.0000000
N2   N   0.444444444444443   0.388888888888886   0.124100593203682   1.0000000
N2   N   0.944448890939482   0.888884442393847   0.125096134210243   1.0000000
N2   N   0.777796738214541   0.388899112120051   0.125180944877348   1.0000000
N2   N   0.277765970894497   0.555567362438841   0.624749282857807   1.0000000
N2   N   0.111102373905517   0.055536595118795   0.624819055122650   1.0000000
N2   N   0.611127703829214   0.555556787563612   0.624966246594492   1.0000000
N2   N   0.444434221213277   0.055536595118795   0.624819055122650   1.0000000
N2   N   0.944457619345730   0.555564707475939   0.624852690769295   1.0000000
N2   N   0.111107088130208   0.555564707475939   0.125147309230705   1.0000000
N2   N   0.777777777777779   0.055555555555557   0.624927120471857   1.0000000
N2   N   0.277765970894497   0.055531941788986   0.125250717142194   1.0000000
N2   N   0.444429083734397   0.555556787563612   0.125033753405508   1.0000000
N2   N   0.777801391544349   0.555567362438841   0.125250717142194   1.0000000
N2   N   0.611104511464565   0.055553262413305   0.125085987356813   1.0000000
N2   N   0.444429083734397   0.555556787563612   0.624966246594492   1.0000000
N2   N   0.944448750948739   0.055553262413305   0.125085987356813   1.0000000
N2   N   0.277768625857398   0.722226245203128   0.624852690769295   1.0000000
N2   N   0.111127185038809   0.222230259186072   0.624813279611300   1.0000000
N2   N   0.444429083734397   0.222205629504121   0.624966246594492   1.0000000
N2   N   0.611103074147264   0.722206148294527   0.624813279611300   1.0000000
N2   N   0.944457619345730   0.722226245203128   0.624852690769295   1.0000000
N2   N   0.777780070920031   0.222228821868770   0.624914012643187   1.0000000
N2   N   0.111111111111114   0.722222222222221   0.125128445523185   1.0000000
N2   N   0.444434221213277   0.722230959427818   0.125180944877348   1.0000000
N2   N   0.277776545769724   0.222205629504121   0.125033753405508   1.0000000
N2   N   0.777796738214541   0.722230959427818   0.125180944877348   1.0000000
N2   N   0.611103074147264   0.222230259186072   0.125186720388700   1.0000000
N2   N   0.944448750948739   0.222228821868770   0.125085987356813   1.0000000
N2   N   0.111102373905517   0.388899112120051   0.624819055122650   1.0000000
N2   N   0.277768625857398   0.888875713987598   0.624852690769295   1.0000000
N2   N   0.611104511464565   0.888884582384590   0.624914012643187   1.0000000
N2   N   0.444444444444443   0.388888888888886   0.625899406796318   1.0000000
N2   N   0.944448890939482   0.888884442393847   0.624903865789757   1.0000000
N2   N   0.111107088130208   0.888875713987598   0.125147309230705   1.0000000
N2   N   0.777796738214541   0.388899112120051   0.624819055122650   1.0000000
N2   N   0.444435551454372   0.888884442393847   0.125096134210243   1.0000000
N2   N   0.277776545769724   0.388904249598931   0.125033753405508   1.0000000
N2   N   0.277765970894497   0.555567362438841   0.125250717142194   1.0000000
N2   N   0.611127703829214   0.388904249598931   0.125033753405508   1.0000000
N2   N   0.777780070920031   0.888884582384590   0.125085987356813   1.0000000
N2   N   0.944448890939482   0.388897781878956   0.125096134210243   1.0000000
N2   N   0.111107088130208   0.555564707475939   0.624852690769295   1.0000000
N2   N   0.277765970894497   0.055531941788986   0.624749282857807   1.0000000
N2   N   0.777801391544349   0.555567362438841   0.624749282857807   1.0000000
N2   N   0.611104511464565   0.055553262413305   0.624914012643187   1.0000000
N2   N   0.944448750948739   0.055553262413305   0.624914012643187   1.0000000
N2   N   0.054483603167492   0.110401080704372   0.375000000000000   1.0000000
N2   N   0.556118628946203   0.612237257892408   0.375000000000000   1.0000000
N2   N   0.387862614796972   0.105337027590151   0.375000000000000   1.0000000
N2   N   0.890837418480867   0.612085375907100   0.375000000000000   1.0000000
N2   N   0.722414424884572   0.110918908448764   0.375000000000000   1.0000000
N2   N   0.055553931989686   0.777779401343650   0.875000000000000   1.0000000
N2   N   0.388893709039482   0.777779714566275   0.875000000000000   1.0000000
N2   N   0.222221848639686   0.277777590986507   0.875000000000000   1.0000000
N2   N   0.722221041841771   0.777778740834311   0.875000000000000   1.0000000
N2   N   0.555555742346828   0.277777590986507   0.875000000000000   1.0000000
N2   N   0.888887548974705   0.277775097949417   0.875000000000000   1.0000000
N2   N   0.221860983222612   0.777597158277969   0.375000000000000   1.0000000
N2   N   0.054483603167492   0.277415855796456   0.375000000000000   1.0000000
N2   N   0.378398427150209   0.256796854300431   0.375000000000000   1.0000000
N2   N   0.555917477536880   0.778849730165843   0.375000000000000   1.0000000
N2   N   0.890495379754268   0.779106088523588   0.375000000000000   1.0000000
N2   N   0.722932252628963   0.277415855796456   0.375000000000000   1.0000000
N2   N   0.055553618767062   0.944447327806545   0.875000000000000   1.0000000
N2   N   0.388893709039482   0.944447327806545   0.875000000000000   1.0000000
N2   N   0.222222581590392   0.444440005354245   0.875000000000000   1.0000000
N2   N   0.555556963919230   0.444445148626279   0.875000000000000   1.0000000
N2   N   0.722222474490225   0.944444948980458   0.875000000000000   1.0000000
N2   N   0.888886005526784   0.444439624293846   0.875000000000000   1.0000000
N2   N   0.054227244809748   0.444722624564016   0.375000000000000   1.0000000
N2   N   0.221247957426235   0.942495914852462   0.375000000000000   1.0000000
N2   N   0.555849832564433   0.944591582948877   0.375000000000000   1.0000000
N2   N   0.378398427150209   0.454934906183120   0.375000000000000   1.0000000
N2   N   0.888741750384452   0.944591582948877   0.375000000000000   1.0000000
N2   N   0.727996305743185   0.445470718536357   0.375000000000000   1.0000000
N2   N   0.222224593404062   0.611108739929272   0.875000000000000   1.0000000
N2   N   0.055554592499025   0.111112291491565   0.875000000000000   1.0000000
N2   N   0.555555742346828   0.611111484693650   0.875000000000000   1.0000000
N2   N   0.388893327979083   0.111115909569482   0.875000000000000   1.0000000
N2   N   0.888884146525198   0.611108739929272   0.875000000000000   1.0000000
N2   N   0.055736175055366   0.611472350110724   0.375000000000000   1.0000000
N2   N   0.722222474490225   0.111110858843110   0.875000000000000   1.0000000
N2   N   0.217474412793172   0.105337027590151   0.375000000000000   1.0000000
N2   N   0.387862614796972   0.615858920540163   0.375000000000000   1.0000000
N2   N   0.727996305743185   0.615858920540163   0.375000000000000   1.0000000
N2   N   0.555917477536880   0.110401080704372   0.375000000000000   1.0000000
N2   N   0.388893327979083   0.611110751742944   0.875000000000000   1.0000000
N2   N   0.888504483564184   0.110918908448764   0.375000000000000   1.0000000
N2   N   0.222225469353964   0.777779401343650   0.875000000000000   1.0000000
N2   N   0.055554592499025   0.277775634340795   0.875000000000000   1.0000000
N2   N   0.388888184707049   0.277776369414106   0.875000000000000   1.0000000
N2   N   0.555557698992533   0.777778740834311   0.875000000000000   1.0000000
N2   N   0.888886005526784   0.777779714566275   0.875000000000000   1.0000000
N2   N   0.722221041841771   0.277775634340795   0.875000000000000   1.0000000
N2   N   0.055736175055366   0.777597158277969   0.375000000000000   1.0000000
N2   N   0.388610708769313   0.779106088523588   0.375000000000000   1.0000000
N2   N   0.221096075440927   0.277214704387132   0.375000000000000   1.0000000
N2   N   0.722932252628963   0.778849730165843   0.375000000000000   1.0000000
N2   N   0.556118628946203   0.277214704387132   0.375000000000000   1.0000000
N2   N   0.888741750384452   0.277483500768903   0.375000000000000   1.0000000
N2   N   0.055553618767062   0.444439624293846   0.875000000000000   1.0000000
N2   N   0.222224593404062   0.944449186808131   0.875000000000000   1.0000000
N2   N   0.555558235383919   0.944445784358623   0.875000000000000   1.0000000
N2   N   0.388888184707049   0.444445148626279   0.875000000000000   1.0000000
N2   N   0.888887548974705   0.944445784358623   0.875000000000000   1.0000000
N2   N   0.054227244809748   0.942837953579060   0.375000000000000   1.0000000
N2   N   0.722217423763855   0.444440005354245   0.875000000000000   1.0000000
N2   N   0.388610708769313   0.942837953579060   0.375000000000000   1.0000000
N2   N   0.217474412793172   0.445470718536357   0.375000000000000   1.0000000
N2   N   0.221247957426235   0.612085375907100   0.375000000000000   1.0000000
N2   N   0.576536479032904   0.454934906183120   0.375000000000000   1.0000000
N2   N   0.722414424884572   0.944828849769144   0.375000000000000   1.0000000
N2   N   0.890495379754268   0.444722624564016   0.375000000000000   1.0000000
N2   N   0.055553931989686   0.611107863979371   0.875000000000000   1.0000000
N2   N   0.222222581590392   0.111115909569482   0.875000000000000   1.0000000
N2   N   0.722217423763855   0.611110751742944   0.875000000000000   1.0000000
N2   N   0.555557698992533   0.111112291491565   0.875000000000000   1.0000000
N2   N   0.888888384352870   0.111110858843110   0.875000000000000   1.0000000
B2   B   0.107404840955902   0.052306825472540   0.375000000000000   1.0000000
B2   B   0.619770279786776   0.564356041745233   0.375000000000000   1.0000000
B2   B   0.444901984516637   0.052306825472540   0.375000000000000   1.0000000
B2   B   0.945443142326665   0.555799457731509   0.375000000000000   1.0000000
B2   B   0.777777777777779   0.055555555555557   0.375000000000000   1.0000000
B2   B   0.111111111111114   0.722222222222221   0.875000000000000   1.0000000
B2   B   0.444456704361460   0.722256511685465   0.875000000000000   1.0000000
B2   B   0.277741054177099   0.222191867292750   0.875000000000000   1.0000000
B2   B   0.777799807324004   0.722256511685465   0.875000000000000   1.0000000
B2   B   0.611135460219401   0.222197873113934   0.875000000000000   1.0000000
B2   B   0.944419649857934   0.222206468112402   0.875000000000000   1.0000000
B2   B   0.277533875601827   0.722977017928486   0.375000000000000   1.0000000
B2   B   0.108968512985279   0.221150923159304   0.375000000000000   1.0000000
B2   B   0.444585761958457   0.213563053546560   0.375000000000000   1.0000000
B2   B   0.612182410174033   0.724364820348057   0.375000000000000   1.0000000
B2   B   0.945443142326665   0.722977017928486   0.375000000000000   1.0000000
B2   B   0.778040748865033   0.221598074667861   0.375000000000000   1.0000000
B2   B   0.111100428316783   0.888880355401389   0.875000000000000   1.0000000
B2   B   0.444457232602347   0.888895282967835   0.875000000000000   1.0000000
B2   B   0.277741054177099   0.388882520217678   0.875000000000000   1.0000000
B2   B   0.611141466040585   0.388882520217678   0.875000000000000   1.0000000
B2   B   0.777786818254468   0.888913683475395   0.875000000000000   1.0000000
B2   B   0.944438050365494   0.388876100730981   0.875000000000000   1.0000000
B2   B   0.107404840955902   0.388431348816692   0.375000000000000   1.0000000
B2   B   0.277533875601827   0.887890191006663   0.375000000000000   1.0000000
B2   B   0.611735258665469   0.889776007530501   0.375000000000000   1.0000000
B2   B   0.944211652345584   0.889121680987744   0.375000000000000   1.0000000
B2   B   0.781026507860796   0.388431348816692   0.375000000000000   1.0000000
B2   B   0.277763973875816   0.555569359457520   0.875000000000000   1.0000000
B2   B   0.111076821647871   0.055533526009331   0.875000000000000   1.0000000
B2   B   0.611141466040585   0.555592279156237   0.875000000000000   1.0000000
B2   B   0.444456704361460   0.055533526009331   0.875000000000000   1.0000000
B2   B   0.944452977931940   0.555553406248724   0.875000000000000   1.0000000
B2   B   0.110356315404850   0.555799457731509   0.375000000000000   1.0000000
B2   B   0.777777777777779   0.055555555555557   0.875000000000000   1.0000000
B2   B   0.276014000518403   0.052028001036814   0.375000000000000   1.0000000
B2   B   0.444585761958457   0.564356041745233   0.375000000000000   1.0000000
B2   B   0.781305332296522   0.557319332814933   0.375000000000000   1.0000000
B2   B   0.611735258665469   0.055292584468302   0.375000000000000   1.0000000
B2   B   0.444450813115651   0.555592279156237   0.875000000000000   1.0000000
B2   B   0.943557325802827   0.055292584468302   0.375000000000000   1.0000000
B2   B   0.277779927084612   0.722232905016553   0.875000000000000   1.0000000
B2   B   0.111062412894532   0.222197873113934   0.875000000000000   1.0000000
B2   B   0.444450813115651   0.222191867292750   0.875000000000000   1.0000000
B2   B   0.611135460219401   0.722270920438805   0.875000000000000   1.0000000
B2   B   0.944452977931940   0.722232905016553   0.875000000000000   1.0000000
B2   B   0.777786818254468   0.222206468112402   0.875000000000000   1.0000000
B2   B   0.111111111111114   0.722222222222221   0.375000000000000   1.0000000
B2   B   0.444901984516637   0.725928492377433   0.375000000000000   1.0000000
B2   B   0.268977291588104   0.213563053546560   0.375000000000000   1.0000000
B2   B   0.781026507860796   0.725928492377433   0.375000000000000   1.0000000
B2   B   0.612182410174033   0.221150923159304   0.375000000000000   1.0000000
B2   B   0.943557325802827   0.221598074667861   0.375000000000000   1.0000000
B2   B   0.111076821647871   0.388876628971868   0.875000000000000   1.0000000
B2   B   0.277779927084612   0.888880355401389   0.875000000000000   1.0000000
B2   B   0.611126865220935   0.888913683475395   0.875000000000000   1.0000000
B2   B   0.444444444444443   0.388888888888886   0.875000000000000   1.0000000
B2   B   0.944438050365494   0.888895282967835   0.875000000000000   1.0000000
B2   B   0.110356315404850   0.887890191006663   0.375000000000000   1.0000000
B2   B   0.777799807324004   0.388876628971868   0.875000000000000   1.0000000
B2   B   0.444910028642152   0.889121680987744   0.375000000000000   1.0000000
B2   B   0.268977291588104   0.388747571374872   0.375000000000000   1.0000000
B2   B   0.276014000518403   0.557319332814933   0.375000000000000   1.0000000
B2   B   0.619770279786776   0.388747571374872   0.375000000000000   1.0000000
B2   B   0.778040748865033   0.889776007530501   0.375000000000000   1.0000000
B2   B   0.944211652345584   0.388423304691177   0.375000000000000   1.0000000
B2   B   0.111100428316783   0.555553406248724   0.875000000000000   1.0000000
B2   B   0.277763973875816   0.055527947751632   0.875000000000000   1.0000000
B2   B   0.777805385581703   0.555569359457520   0.875000000000000   1.0000000
B2   B   0.611126865220935   0.055546515078868   0.875000000000000   1.0000000
B2   B   0.944419649857934   0.055546515078868   0.875000000000000   1.0000000
B2   B   0.055473085227977   0.111039554182729   0.124894007044289   1.0000000
B2   B   0.555621995791923   0.611243991583847   0.124589034167251   1.0000000
B2   B   0.388822658227648   0.110917448587291   0.124805612294259   1.0000000
B2   B   0.889009199234077   0.611171266283710   0.124941058479692   1.0000000
B2   B   0.722234783129155   0.111098550204179   0.124900986446326   1.0000000
B2   B   0.055571330737509   0.777762002595819   0.625068184125474   1.0000000
B2   B   0.388853135245992   0.777818134438441   0.625082490205911   1.0000000
B2   B   0.222089341749490   0.277711337541412   0.625410965832749   1.0000000
B2   B   0.722293779150607   0.777860248105359   0.625105992955710   1.0000000
B2   B   0.555621995791923   0.277711337541412   0.625410965832749   1.0000000
B2   B   0.888891102112442   0.277782204224883   0.625104209330584   1.0000000
B2   B   0.222190671858310   0.777762002595819   0.124931815874525   1.0000000
B2   B   0.055473085227977   0.277766864378583   0.124894007044289   1.0000000
B2   B   0.388762921984583   0.277525843969173   0.123806870097423   1.0000000
B2   B   0.555566468954751   0.777860248105359   0.124894007044289   1.0000000
B2   B   0.888964999192436   0.777818134438441   0.124917509794089   1.0000000
B2   B   0.722293779150607   0.277766864378583   0.124894007044289   1.0000000
B2   B   0.055515198894895   0.944368334140893   0.625082490205911   1.0000000
B2   B   0.388853135245992   0.944368334140893   0.625082490205911   1.0000000
B2   B   0.222094790359636   0.444510675105680   0.625194387705740   1.0000000
B2   B   0.555807489364162   0.444570411348745   0.626193129902577   1.0000000
B2   B   0.722234783129155   0.944469566258307   0.625099013553674   1.0000000
B2   B   0.888964999192436   0.444480198087336   0.625082490205911   1.0000000
B2   B   0.055515198894895   0.444480198087336   0.124917509794089   1.0000000
B2   B   0.222162067049625   0.944324134099252   0.124941058479692   1.0000000
B2   B   0.555551129108453   0.944442231220887   0.124895790669416   1.0000000
B2   B   0.388762921984583   0.444570411348745   0.123806870097423   1.0000000
B2   B   0.888891102112442   0.944442231220887   0.124895790669416   1.0000000
B2   B   0.722415884746044   0.444510675105680   0.124805612294259   1.0000000
B2   B   0.222162067049625   0.611171266283710   0.625058941520308   1.0000000
B2   B   0.055473085227977   0.111039554182729   0.625105992955710   1.0000000
B2   B   0.555621995791923   0.611243991583847   0.625410965832749   1.0000000
B2   B   0.388822658227648   0.110917448587291   0.625194387705740   1.0000000
B2   B   0.889009199234077   0.611171266283710   0.625058941520308   1.0000000
B2   B   0.055571330737509   0.611142661475026   0.124931815874525   1.0000000
B2   B   0.722234783129155   0.111098550204179   0.625099013553674   1.0000000
B2   B   0.222094790359636   0.110917448587291   0.124805612294259   1.0000000
B2   B   0.388822658227648   0.611238542973701   0.124805612294259   1.0000000
B2   B   0.722415884746044   0.611238542973701   0.124805612294259   1.0000000
B2   B   0.555566468954751   0.111039554182729   0.124894007044289   1.0000000
B2   B   0.388822658227648   0.611238542973701   0.625194387705740   1.0000000
B2   B   0.888863767075022   0.111098550204179   0.124900986446326   1.0000000
B2   B   0.222190671858310   0.777762002595819   0.625068184125474   1.0000000
B2   B   0.055473085227977   0.277766864378583   0.625105992955710   1.0000000
B2   B   0.388762921984583   0.277525843969173   0.626193129902577   1.0000000
B2   B   0.555566468954751   0.777860248105359   0.625105992955710   1.0000000
B2   B   0.888964999192436   0.777818134438441   0.625082490205911   1.0000000
B2   B   0.722293779150607   0.277766864378583   0.625105992955710   1.0000000
B2   B   0.055571330737509   0.777762002595819   0.124931815874525   1.0000000
B2   B   0.388853135245992   0.777818134438441   0.124917509794089   1.0000000
B2   B   0.222089341749490   0.277711337541412   0.124589034167251   1.0000000
B2   B   0.722293779150607   0.777860248105359   0.124894007044289   1.0000000
B2   B   0.555621995791923   0.277711337541412   0.124589034167251   1.0000000
B2   B   0.888891102112442   0.277782204224883   0.124895790669416   1.0000000
B2   B   0.055515198894895   0.444480198087336   0.625082490205911   1.0000000
B2   B   0.222162067049625   0.944324134099252   0.625058941520308   1.0000000
B2   B   0.555551129108453   0.944442231220887   0.625104209330584   1.0000000
B2   B   0.388762921984583   0.444570411348745   0.626193129902577   1.0000000
B2   B   0.888891102112442   0.944442231220887   0.625104209330584   1.0000000
B2   B   0.055515198894895   0.944368334140893   0.124917509794089   1.0000000
B2   B   0.722415884746044   0.444510675105680   0.625194387705740   1.0000000
B2   B   0.388853135245992   0.944368334140893   0.124917509794089   1.0000000
B2   B   0.222094790359636   0.444510675105680   0.124805612294259   1.0000000
B2   B   0.222162067049625   0.611171266283710   0.124941058479692   1.0000000
B2   B   0.555807489364162   0.444570411348745   0.123806870097423   1.0000000
B2   B   0.722234783129155   0.944469566258307   0.124900986446326   1.0000000
B2   B   0.888964999192436   0.444480198087336   0.124917509794089   1.0000000
B2   B   0.055571330737509   0.611142661475026   0.625068184125474   1.0000000
B2   B   0.222094790359636   0.110917448587291   0.625194387705740   1.0000000
B2   B   0.722415884746044   0.611238542973701   0.625194387705740   1.0000000
B2   B   0.555566468954751   0.111039554182729   0.625105992955710   1.0000000
B2   B   0.888863767075022   0.111098550204179   0.625099013553674   1.0000000


