data_1
_audit_creation_method   'vasp2cif'
_cell_length_a    17.52789999999977
_cell_length_b    17.52789999999977
_cell_length_c    15.0
_cell_angle_alpha    90.0
_cell_angle_beta    90.0
_cell_angle_gamma    119.99999999999916

_symmetry_space_group_name_H-M    'P 1'
loop_
_atom_site_label
_atom_site_type_symbol
_atom_site_fract_x
_atom_site_fract_y
_atom_site_fract_z
_atom_site_occupancy
Al2   Al   0.526319672907070   0.623561296244414   0.111217815563990   1.0000000
B2   B   0.908077823640598   0.955028214483792   0.111049676309855   1.0000000
B2   B   0.904648180272972   0.095396332988809   0.111120818447490   1.0000000
B2   B   0.903905351126475   0.237531027662749   0.111059672601882   1.0000000
B2   B   0.904461777341486   0.380307480812108   0.110982256242046   1.0000000
B2   B   0.907010439183749   0.523885221397311   0.111160771363809   1.0000000
B2   B   0.911260474268026   0.668456329488892   0.111226180045422   1.0000000
B2   B   0.911019358931366   0.813291099229889   0.111074284715354   1.0000000
B2   B   0.049602466824212   0.953362326928612   0.111084418195055   1.0000000
B2   B   0.047037222302393   0.094439507600877   0.111031120655669   1.0000000
B2   B   0.045447918023232   0.236682695357996   0.110935510153126   1.0000000
B2   B   0.045240264950994   0.379908981447696   0.110891169269155   1.0000000
B2   B   0.046373951621095   0.523603976656748   0.110890561019994   1.0000000
B2   B   0.049076099401153   0.667485678195315   0.111054989551232   1.0000000
B2   B   0.050252447400160   0.810875215139822   0.111131831550851   1.0000000
B2   B   0.190949670526804   0.952357724299683   0.110993404242908   1.0000000
B2   B   0.189321539862438   0.093228647311169   0.110972672758717   1.0000000
B2   B   0.185854401154240   0.233519420177184   0.110792645183431   1.0000000
B2   B   0.185658233822326   0.378517881294206   0.111003277776729   1.0000000
B2   B   0.185606906534681   0.523384297417685   0.110956267143607   1.0000000
B2   B   0.187796412080850   0.667513090306565   0.110902745576441   1.0000000
B2   B   0.190610788700041   0.810409729370200   0.110893564139285   1.0000000
B2   B   0.332909071097062   0.952583256043079   0.110910193013031   1.0000000
B2   B   0.332461008046961   0.093204481832240   0.111057703305174   1.0000000
B2   B   0.329098384745859   0.232156141106225   0.111027125701925   1.0000000
B2   B   0.322997421709199   0.372159210058734   0.111779258396796   1.0000000
B2   B   0.324162567339683   0.522495642995379   0.111864071380996   1.0000000
B2   B   0.326018315159279   0.668231369440048   0.111457347725256   1.0000000
B2   B   0.331748721684134   0.811202065370223   0.110924175891588   1.0000000
B2   B   0.475652413296753   0.954610616519095   0.110897087686790   1.0000000
B2   B   0.475869442934593   0.093676319932674   0.111008554812732   1.0000000
B2   B   0.475264275836199   0.231464071316056   0.111119838608544   1.0000000
B2   B   0.468600805974438   0.360538023794084   0.111393383458662   1.0000000
B2   B   0.450022004883833   0.507039113760018   0.109808051205910   1.0000000
B2   B   0.463116167135946   0.679287572495156   0.109637020155419   1.0000000
B2   B   0.474532567246345   0.816213355142482   0.111349498698106   1.0000000
B2   B   0.619310512936623   0.953931671682956   0.110976174997716   1.0000000
B2   B   0.619276041790010   0.095339790300116   0.110904480094431   1.0000000
B2   B   0.619631834028336   0.236748582232367   0.111050780674393   1.0000000
B2   B   0.620928763381174   0.378854648127917   0.111031283830077   1.0000000
B2   B   0.639384269426147   0.533937338082223   0.110505976425828   1.0000000
B2   B   0.645742863813020   0.678449089562618   0.112568432035315   1.0000000
B2   B   0.620087175922330   0.811982477291196   0.111095862839978   1.0000000
B2   B   0.763323721845935   0.954031354699658   0.110971676092410   1.0000000
B2   B   0.762043926310918   0.095572929652521   0.111025242775452   1.0000000
B2   B   0.762094404235114   0.237611219873454   0.111001901651727   1.0000000
B2   B   0.763328952706628   0.380182795144748   0.111070188353188   1.0000000
B2   B   0.768386968490456   0.524490089036768   0.111028420207801   1.0000000
B2   B   0.778008412837881   0.673225114677321   0.110497773991398   1.0000000
B2   B   0.770342933236405   0.816359579489073   0.110682259026697   1.0000000
N2   N   0.955807137536716   0.907428594070057   0.111100239328484   1.0000000
N2   N   0.953153175633822   0.048802582991525   0.111147507091490   1.0000000
N2   N   0.951108949385768   0.189925272812302   0.111056364188151   1.0000000
N2   N   0.950913594893509   0.332298342265101   0.110949665181332   1.0000000
N2   N   0.952236561597304   0.475291823475152   0.110971146076283   1.0000000
N2   N   0.955387375457736   0.619068430762665   0.111226606277584   1.0000000
N2   N   0.956385838460656   0.763581710469893   0.111209640006556   1.0000000
N2   N   0.096652012579833   0.905525710859235   0.111020176476012   1.0000000
N2   N   0.095214070514598   0.047436251466785   0.111008865077052   1.0000000
N2   N   0.092253820845105   0.188298106295609   0.110825611566759   1.0000000
N2   N   0.091633620694739   0.331438533347010   0.110855383180452   1.0000000
N2   N   0.091737046505971   0.474914090350979   0.110781242926948   1.0000000
N2   N   0.093942868800678   0.618786380329110   0.110848431742246   1.0000000
N2   N   0.096294079545068   0.762529515117673   0.111001668686619   1.0000000
N2   N   0.238211524790698   0.905158255091411   0.110894248097064   1.0000000
N2   N   0.237790153446886   0.046774727091011   0.110983796767884   1.0000000
N2   N   0.235000033040075   0.187126202264002   0.110807773423407   1.0000000
N2   N   0.230088213213982   0.326965954937531   0.110921649096055   1.0000000
N2   N   0.230463201292488   0.474060520480707   0.111199499524003   1.0000000
N2   N   0.232280878042082   0.618843574429429   0.111044848157036   1.0000000
N2   N   0.236866166583228   0.762688202234509   0.110799403432341   1.0000000
N2   N   0.380494748227510   0.906102108107080   0.110807313326930   1.0000000
N2   N   0.380832740610111   0.047062654715030   0.110987536383915   1.0000000
N2   N   0.379878229859427   0.187476401928581   0.111020724741810   1.0000000
N2   N   0.375115131828914   0.326050811102018   0.111344899830099   1.0000000
N2   N   0.360313500388214   0.464287296206466   0.112586484741363   1.0000000
N2   N   0.369984734987815   0.619836652852153   0.111581523619458   1.0000000
N2   N   0.378391838775443   0.764328673365343   0.111213613527673   1.0000000
N2   N   0.524034975135381   0.909629635064816   0.111010763286655   1.0000000
N2   N   0.524242503738054   0.048437305636491   0.110847474782026   1.0000000
N2   N   0.524396935858649   0.187524008855498   0.111033295854120   1.0000000
N2   N   0.524461645907935   0.325118888801056   0.111226081099512   1.0000000
N2   N   0.522742207114470   0.771956282677759   0.111248753003822   1.0000000
N2   N   0.667868116694048   0.906885923333348   0.110984463737833   1.0000000
N2   N   0.667210720806710   0.048546116967126   0.110893773655447   1.0000000
N2   N   0.667254997935506   0.190117455932897   0.110942418716810   1.0000000
N2   N   0.668060522262307   0.332121776675645   0.111040578546812   1.0000000
N2   N   0.672947840650936   0.475586344521653   0.110762286876082   1.0000000
N2   N   0.686633855039215   0.626332195810217   0.110286632709430   1.0000000
N2   N   0.677181822990051   0.770927217574722   0.111049279693129   1.0000000
N2   N   0.814364890089204   0.909675583598597   0.110794383726502   1.0000000
N2   N   0.809911774656148   0.048548326472871   0.111059387117923   1.0000000
N2   N   0.809301335801820   0.190252082659791   0.111006422256755   1.0000000
N2   N   0.809779007502993   0.332475033372773   0.110974589031195   1.0000000
N2   N   0.812549451054018   0.475358260478398   0.111135316495830   1.0000000
N2   N   0.818155964640522   0.620151218090930   0.110963573216149   1.0000000
N2   N   0.817899549314245   0.767305511014478   0.110720555127275   1.0000000
S2   S   0.522779152635005   0.472723225865668   0.110714693048300   1.0000000


