data_1
_audit_creation_method   'vasp2cif'
_cell_length_a    14.93631414619966
_cell_length_b    14.936314146199727
_cell_length_c    13.341276283792837
_cell_angle_alpha    90.0
_cell_angle_beta    90.0
_cell_angle_gamma    119.99999999999984

_symmetry_space_group_name_H-M    'P 1'
loop_
_atom_site_label
_atom_site_type_symbol
_atom_site_fract_x
_atom_site_fract_y
_atom_site_fract_z
_atom_site_occupancy
As2   As   0.489433511481537   0.411383422407433   0.375000000000000   1.0000000
N2   N   0.111109461073638   0.055535673043286   0.125168063319780   1.0000000
N2   N   0.611093417838242   0.555562174323757   0.125003074124705   1.0000000
N2   N   0.444437348463414   0.055529724783017   0.125192942581725   1.0000000
N2   N   0.944437647835744   0.555559197661166   0.125194496379454   1.0000000
N2   N   0.777787407425034   0.055560370379185   0.125065609007243   1.0000000
N2   N   0.111104510358155   0.722218921845741   0.624903673613402   1.0000000
N2   N   0.444437348463414   0.722240957013733   0.624807057418276   1.0000000
N2   N   0.277761302350980   0.222196844760430   0.625123542921689   1.0000000
N2   N   0.777767557654899   0.722209669104960   0.624711184893233   1.0000000
N2   N   0.611098517248467   0.222199900079523   0.624825231667536   1.0000000
N2   N   0.944457706461234   0.222236138998695   0.624871542285188   1.0000000
N2   N   0.277770905459138   0.722229378593816   0.125133797565327   1.0000000
N2   N   0.111123206067477   0.222228269700402   0.125149856629321   1.0000000
N2   N   0.444437113191810   0.222195919156763   0.124982735484684   1.0000000
N2   N   0.611098517248467   0.722231950502271   0.125174768332465   1.0000000
N2   N   0.944437647835744   0.722211783507913   0.125194496379454   1.0000000
N2   N   0.777780121037782   0.222226606194058   0.125137245027599   1.0000000
N2   N   0.111105290787190   0.888870798926035   0.624864368520325   1.0000000
N2   N   0.444439342094899   0.888886337714114   0.624859630864604   1.0000000
N2   N   0.277761302350980   0.388897790923879   0.625123542921689   1.0000000
N2   N   0.611093417838242   0.388864576847814   0.624996925875296   1.0000000
N2   N   0.777780121037782   0.888886848177052   0.624862754972402   1.0000000
N2   N   0.944445633347454   0.388903352251842   0.624839811482514   1.0000000
N2   N   0.111109461073638   0.388907121363681   0.125168063319780   1.0000000
N2   N   0.277770905459138   0.888874860198652   0.125133797565327   1.0000000
N2   N   0.611110058399530   0.888898318281615   0.125112958921820   1.0000000
N2   N   0.444386122420794   0.388859727877061   0.124732249487422   1.0000000
N2   N   0.944445633347454   0.888875614428940   0.125160188517487   1.0000000
N2   N   0.777767557654899   0.388891221883269   0.125288815106766   1.0000000
N2   N   0.277771008553597   0.555574988781216   0.624841161012796   1.0000000
N2   N   0.111109461073638   0.055535673043286   0.624831936680219   1.0000000
N2   N   0.611093417838242   0.555562174323757   0.624996925875296   1.0000000
N2   N   0.444437348463414   0.055529724783017   0.624807057418276   1.0000000
N2   N   0.944437647835744   0.555559197661166   0.624805503620546   1.0000000
N2   N   0.111105290787190   0.555567825194483   0.125135631479674   1.0000000
N2   N   0.777787407425034   0.055560370379185   0.624934390992758   1.0000000
N2   N   0.277771008553597   0.055529353105718   0.125158838987203   1.0000000
N2   N   0.444437113191810   0.555574527368383   0.124982735484684   1.0000000
N2   N   0.777756501862516   0.555544917597926   0.125351408418309   1.0000000
N2   N   0.611110058399530   0.055545073451244   0.125112958921820   1.0000000
N2   N   0.444437113191810   0.555574527368383   0.625017264515318   1.0000000
N2   N   0.944457706461234   0.055554900795876   0.125128457714812   1.0000000
N2   N   0.277770905459138   0.722229378593816   0.624866202434673   1.0000000
N2   N   0.111123206067477   0.222228269700402   0.624850143370679   1.0000000
N2   N   0.444437113191810   0.222195919156763   0.625017264515318   1.0000000
N2   N   0.611098517248467   0.722231950502271   0.624825231667536   1.0000000
N2   N   0.944437647835744   0.722211783507913   0.624805503620546   1.0000000
N2   N   0.777780121037782   0.222226606194058   0.624862754972402   1.0000000
N2   N   0.111104510358155   0.722218921845741   0.125096326386598   1.0000000
N2   N   0.444437348463414   0.722240957013733   0.125192942581725   1.0000000
N2   N   0.277761302350980   0.222196844760430   0.124876457078311   1.0000000
N2   N   0.777767557654899   0.722209669104960   0.125288815106766   1.0000000
N2   N   0.611098517248467   0.222199900079523   0.125174768332465   1.0000000
N2   N   0.944457706461234   0.222236138998695   0.125128457714812   1.0000000
N2   N   0.111109461073638   0.388907121363681   0.624831936680219   1.0000000
N2   N   0.277770905459138   0.888874860198652   0.624866202434673   1.0000000
N2   N   0.611110058399530   0.888898318281615   0.624887041078180   1.0000000
N2   N   0.444386122420794   0.388859727877061   0.625267750512578   1.0000000
N2   N   0.944445633347454   0.888875614428940   0.624839811482514   1.0000000
N2   N   0.111105290787190   0.888870798926035   0.125135631479674   1.0000000
N2   N   0.777767557654899   0.388891221883269   0.624711184893233   1.0000000
N2   N   0.444439342094899   0.888886337714114   0.125140369135396   1.0000000
N2   N   0.277761302350980   0.388897790923879   0.124876457078311   1.0000000
N2   N   0.277771008553597   0.555574988781216   0.125158838987203   1.0000000
N2   N   0.611093417838242   0.388864576847814   0.125003074124705   1.0000000
N2   N   0.777780121037782   0.888886848177052   0.125137245027599   1.0000000
N2   N   0.944445633347454   0.388903352251842   0.125160188517487   1.0000000
N2   N   0.111105290787190   0.555567825194483   0.624864368520325   1.0000000
N2   N   0.277771008553597   0.055529353105718   0.624841161012796   1.0000000
N2   N   0.777756501862516   0.555544917597926   0.624648591581690   1.0000000
N2   N   0.611110058399530   0.055545073451244   0.624887041078180   1.0000000
N2   N   0.944457706461234   0.055554900795876   0.624871542285188   1.0000000
N2   N   0.058951150904197   0.113061877209172   0.375000000000000   1.0000000
N2   N   0.555687632873767   0.619060670398162   0.375000000000000   1.0000000
N2   N   0.388579815820529   0.106597839459069   0.375000000000000   1.0000000
N2   N   0.885852791169157   0.609593062251250   0.375000000000000   1.0000000
N2   N   0.724461063067583   0.111465087728709   0.375000000000000   1.0000000
N2   N   0.055538657742111   0.777771522895485   0.875000000000000   1.0000000
N2   N   0.388882903333303   0.777773437496715   0.875000000000000   1.0000000
N2   N   0.222206105485452   0.277769719409394   0.875000000000000   1.0000000
N2   N   0.722211647185587   0.777773669334893   0.875000000000000   1.0000000
N2   N   0.555545390013950   0.277774081552979   0.875000000000000   1.0000000
N2   N   0.888878228384619   0.277771330425095   0.875000000000000   1.0000000
N2   N   0.221074826847804   0.777204080090570   0.375000000000000   1.0000000
N2   N   0.058951150904197   0.279222607028360   0.375000000000000   1.0000000
N2   N   0.393666695743515   0.274012998491292   0.375000000000000   1.0000000
N2   N   0.556451765228865   0.781681676845507   0.375000000000000   1.0000000
N2   N   0.888475449773978   0.777936262062729   0.375000000000000   1.0000000
N2   N   0.723787750063989   0.276621424817583   0.375000000000000   1.0000000
N2   N   0.055540357251559   0.944439530505519   0.875000000000000   1.0000000
N2   N   0.388882903333303   0.944442799169924   0.875000000000000   1.0000000
N2   N   0.222206588378914   0.444434631333738   0.875000000000000   1.0000000
N2   N   0.555544439517322   0.444438886425325   0.875000000000000   1.0000000
N2   N   0.722212599081924   0.944440191109190   0.875000000000000   1.0000000
N2   N   0.888875116466767   0.444434718421726   0.875000000000000   1.0000000
N2   N   0.056623978350216   0.444869819055830   0.375000000000000   1.0000000
N2   N   0.221529495987196   0.943158326338753   0.375000000000000   1.0000000
N2   N   0.556532601882007   0.944932967607667   0.375000000000000   1.0000000
N2   N   0.393666695743515   0.452987030585559   0.375000000000000   1.0000000
N2   N   0.891244724260631   0.946280609591163   0.375000000000000   1.0000000
N2   N   0.719319035697127   0.442219304610263   0.375000000000000   1.0000000
N2   N   0.222209636940872   0.611101415575622   0.875000000000000   1.0000000
N2   N   0.055539993904163   0.111104032726521   0.875000000000000   1.0000000
N2   N   0.555545390013950   0.611104641794306   0.875000000000000   1.0000000
N2   N   0.388880323179789   0.111109899622254   0.875000000000000   1.0000000
N2   N   0.888872020979679   0.611102677156511   0.875000000000000   1.0000000
N2   N   0.054031522458444   0.610552232187645   0.375000000000000   1.0000000
N2   N   0.722212599081924   0.111105741306070   0.875000000000000   1.0000000
N2   N   0.224976115839809   0.112130286674426   0.375000000000000   1.0000000
N2   N   0.388579815820529   0.615315309694803   0.375000000000000   1.0000000
N2   N   0.719319035697127   0.610433064420200   0.375000000000000   1.0000000
N2   N   0.556451765228865   0.108103421716693   0.375000000000000   1.0000000
N2   N   0.388880323179789   0.611103756890878   0.875000000000000   1.0000000
N2   N   0.891889359406945   0.112611346370144   0.375000000000000   1.0000000
N2   N   0.222210973735960   0.777772153534649   0.875000000000000   1.0000000
N2   N   0.055539993904163   0.277769294510978   0.875000000000000   1.0000000
N2   N   0.388877705792685   0.277773186433078   0.875000000000000   1.0000000
N2   N   0.555547409161948   0.777773748668901   0.875000000000000   1.0000000
N2   N   0.888875116466767   0.777773731378378   0.875000000000000   1.0000000
N2   N   0.722211647185587   0.277771311184029   0.875000000000000   1.0000000
N2   N   0.054031522458444   0.776812623604135   0.375000000000000   1.0000000
N2   N   0.388564605366677   0.778989080359927   0.375000000000000   1.0000000
N2   N   0.227365897452590   0.280349615392962   0.375000000000000   1.0000000
N2   N   0.723787750063989   0.780499658579742   0.375000000000000   1.0000000
N2   N   0.555687632873767   0.269960295808941   0.375000000000000   1.0000000
N2   N   0.891244724260632   0.278297448002803   0.375000000000000   1.0000000
N2   N   0.055540357251559   0.444434160079369   0.875000000000000   1.0000000
N2   N   0.222209636940872   0.944441554698586   0.875000000000000   1.0000000
N2   N   0.555547542117828   0.944440437725578   0.875000000000000   1.0000000
N2   N   0.388877705792685   0.444437852692943   0.875000000000000   1.0000000
N2   N   0.888878228384619   0.944440231292862   0.875000000000000   1.0000000
N2   N   0.056623978350216   0.945087492627715   0.375000000000000   1.0000000
N2   N   0.722209320835304   0.444437444100171   0.875000000000000   1.0000000
N2   N   0.388564605366677   0.942908858340087   0.375000000000000   1.0000000
N2   N   0.224976115839809   0.446179162498719   0.375000000000000   1.0000000
N2   N   0.221529495987196   0.611704502981779   0.375000000000000   1.0000000
N2   N   0.724461063067583   0.946329308672209   0.375000000000000   1.0000000
N2   N   0.888475449773978   0.443872521044585   0.375000000000000   1.0000000
N2   N   0.055538657742111   0.611100468179962   0.875000000000000   1.0000000
N2   N   0.222206588378914   0.111105290378512   0.875000000000000   1.0000000
N2   N   0.722209320835304   0.611105210068468   0.875000000000000   1.0000000
N2   N   0.555547409161948   0.111106993826382   0.875000000000000   1.0000000
N2   N   0.888878125478597   0.111105729405969   0.875000000000000   1.0000000
B2   B   0.113354113078879   0.056574044104415   0.375000000000000   1.0000000
B2   B   0.611722837517931   0.568429789445970   0.375000000000000   1.0000000
B2   B   0.445109787599552   0.052581812855104   0.375000000000000   1.0000000
B2   B   0.943082255326032   0.554932318143589   0.375000000000000   1.0000000
B2   B   0.780791803479891   0.057062568406614   0.375000000000000   1.0000000
B2   B   0.111102919870160   0.722218126601743   0.875000000000000   1.0000000
B2   B   0.444430228055018   0.722234154112778   0.875000000000000   1.0000000
B2   B   0.277720064767189   0.222186840442048   0.875000000000000   1.0000000
B2   B   0.777797344346838   0.722258174363121   0.875000000000000   1.0000000
B2   B   0.611114489884030   0.222190699422556   0.875000000000000   1.0000000
B2   B   0.944430639325092   0.222209618126111   0.875000000000000   1.0000000
B2   B   0.277231519560136   0.722653533467350   0.375000000000000   1.0000000
B2   B   0.115055827338568   0.224194580335948   0.375000000000000   1.0000000
B2   B   0.444466043353300   0.215003872944077   0.375000000000000   1.0000000
B2   B   0.613522200363463   0.729611313058239   0.375000000000000   1.0000000
B2   B   0.943082255326032   0.721483270515778   0.375000000000000   1.0000000
B2   B   0.780512089982634   0.222074404973400   0.375000000000000   1.0000000
B2   B   0.111094681949059   0.888884223342971   0.875000000000000   1.0000000
B2   B   0.444435491095240   0.888884412214284   0.875000000000000   1.0000000
B2   B   0.277720064767189   0.388866557658470   0.875000000000000   1.0000000
B2   B   0.611116322876012   0.388869848546497   0.875000000000000   1.0000000
B2   B   0.777787093580755   0.888916291538370   0.875000000000000   1.0000000
B2   B   0.944445056967284   0.388873921637759   0.875000000000000   1.0000000
B2   B   0.113354113078879   0.390113402307792   0.375000000000000   1.0000000
B2   B   0.277231519560136   0.887911319426116   0.375000000000000   1.0000000
B2   B   0.613321739784063   0.891824704536021   0.375000000000000   1.0000000
B2   B   0.945579924230904   0.889851676859008   0.375000000000000   1.0000000
B2   B   0.778047613331268   0.387300210084475   0.375000000000000   1.0000000
B2   B   0.277742221955067   0.555547268682063   0.875000000000000   1.0000000
B2   B   0.111076750937203   0.055538774678933   0.875000000000000   1.0000000
B2   B   0.611116322876012   0.555579807662844   0.875000000000000   1.0000000
B2   B   0.444430228055018   0.055529407275576   0.875000000000000   1.0000000
B2   B   0.944455359060149   0.555551325707443   0.875000000000000   1.0000000
B2   B   0.110524240949126   0.555769446983042   0.375000000000000   1.0000000
B2   B   0.777779250857898   0.055556292095618   0.875000000000000   1.0000000
B2   B   0.277588609725928   0.053625479257777   0.375000000000000   1.0000000
B2   B   0.444466043353300   0.562795503742558   0.375000000000000   1.0000000
B2   B   0.775155316939536   0.554244325136436   0.375000000000000   1.0000000
B2   B   0.613321739784063   0.054830368581372   0.375000000000000   1.0000000
B2   B   0.444414457220102   0.555563027470919   0.875000000000000   1.0000000
B2   B   0.947627800037379   0.057498253838949   0.375000000000000   1.0000000
B2   B   0.277760068767682   0.722217021590224   0.875000000000000   1.0000000
B2   B   0.111066134809260   0.222199734071294   0.875000000000000   1.0000000
B2   B   0.444414457220102   0.222184763082519   0.875000000000000   1.0000000
B2   B   0.611114489884030   0.722257123794803   0.875000000000000   1.0000000
B2   B   0.944455359060149   0.722237366686041   0.875000000000000   1.0000000
B2   B   0.777787093580755   0.222204135375714   0.875000000000000   1.0000000
B2   B   0.109922021690049   0.721627677511689   0.375000000000000   1.0000000
B2   B   0.445109787599552   0.725861308077784   0.375000000000000   1.0000000
B2   B   0.281548441395000   0.223582335030615   0.375000000000000   1.0000000
B2   B   0.778047613331268   0.724080736580123   0.375000000000000   1.0000000
B2   B   0.613522200363463   0.217244220638553   0.375000000000000   1.0000000
B2   B   0.947627800037379   0.223462879531765   0.375000000000000   1.0000000
B2   B   0.111076750937203   0.388871309591599   0.875000000000000   1.0000000
B2   B   0.277760068767682   0.888876380510787   0.875000000000000   1.0000000
B2   B   0.611112722185010   0.888904204611811   0.875000000000000   1.0000000
B2   B   0.444400209111499   0.388866771222413   0.875000000000000   1.0000000
B2   B   0.944445056967284   0.888904468662853   0.875000000000000   1.0000000
B2   B   0.110524240949126   0.888088127299414   0.375000000000000   1.0000000
B2   B   0.777797344346838   0.388872503317045   0.875000000000000   1.0000000
B2   B   0.445128595751519   0.889230964542424   0.375000000000000   1.0000000
B2   B   0.281548441395000   0.391299439697713   0.375000000000000   1.0000000
B2   B   0.277588609725928   0.557296463801487   0.375000000000000   1.0000000
B2   B   0.611722837517931   0.376626381405290   0.375000000000000   1.0000000
B2   B   0.780512089982634   0.891771018342563   0.375000000000000   1.0000000
B2   B   0.945579924230904   0.389061580705226   0.375000000000000   1.0000000
B2   B   0.111094681949059   0.555543791939416   0.875000000000000   1.0000000
B2   B   0.277742221955067   0.055528286606340   0.875000000000000   1.0000000
B2   B   0.777799696504686   0.555566514919010   0.875000000000000   1.0000000
B2   B   0.611112722185010   0.055541850906525   0.875000000000000   1.0000000
B2   B   0.944430639325092   0.055554354532317   0.875000000000000   1.0000000
B2   B   0.055538018035874   0.111084707869407   0.124949795445990   1.0000000
B2   B   0.555516306734407   0.611234949375959   0.124446498348874   1.0000000
B2   B   0.388798712523245   0.110932341378342   0.124791973542078   1.0000000
B2   B   0.889022224214253   0.611177778773798   0.124921792932113   1.0000000
B2   B   0.722233411670946   0.111082717158956   0.124879024436849   1.0000000
B2   B   0.055610626625652   0.777793732171394   0.625081000784629   1.0000000
B2   B   0.388837308844178   0.777805280664302   0.625061599981396   1.0000000
B2   B   0.222130212274546   0.277731772803941   0.625363355292929   1.0000000
B2   B   0.722266875347344   0.777879736388834   0.625153416887473   1.0000000
B2   B   0.555516306734407   0.277614690691785   0.625553501651127   1.0000000
B2   B   0.888926924651963   0.277782583125826   0.625079281761074   1.0000000
B2   B   0.222208719334426   0.777771026333882   0.124918892590986   1.0000000
B2   B   0.055538018035874   0.277786643499802   0.124949795445990   1.0000000
B2   B   0.388714076086541   0.277563256958712   0.124300395425844   1.0000000
B2   B   0.555522946118418   0.777864511830859   0.124868593059707   1.0000000
B2   B   0.888984324007988   0.777845379613303   0.124931880111332   1.0000000
B2   B   0.722266875347344   0.277720472291847   0.124846583112526   1.0000000
B2   B   0.055567362772547   0.944422314187960   0.625044832238290   1.0000000
B2   B   0.388837308844178   0.944365361513213   0.625061599981396   1.0000000
B2   B   0.222140593560702   0.444481101021005   0.625178730369461   1.0000000
B2   B   0.555574494414392   0.444453913873860   0.625871800178238   1.0000000
B2   B   0.722233411670946   0.944484027845325   0.625120975563152   1.0000000
B2   B   0.888984324007988   0.444472277728020   0.625068119888668   1.0000000
B2   B   0.055567362772547   0.444478381917917   0.124955167761710   1.0000000
B2   B   0.222187184242507   0.944365799558279   0.124942752188631   1.0000000
B2   B   0.555528792296317   0.944431062814823   0.124902233298620   1.0000000
B2   B   0.388714076086541   0.444484152461165   0.124300395425844   1.0000000
B2   B   0.888926924651963   0.944477674859472   0.124920718238927   1.0000000
B2   B   0.722344643732519   0.444460713222298   0.124667191917945   1.0000000
B2   B   0.222187184242507   0.611154718017564   0.625057247811369   1.0000000
B2   B   0.055538018035874   0.111084707869407   0.625050204554009   1.0000000
B2   B   0.555516306734407   0.611234949375959   0.625553501651127   1.0000000
B2   B   0.388798712523245   0.110932341378342   0.625208026457922   1.0000000
B2   B   0.889022224214253   0.611177778773798   0.625078207067887   1.0000000
B2   B   0.055610626625652   0.611150227787593   0.124918999215371   1.0000000
B2   B   0.722233411670946   0.111082717158956   0.625120975563152   1.0000000
B2   B   0.222140593560702   0.110992825873033   0.124821269630539   1.0000000
B2   B   0.388798712523245   0.611199704478246   0.124791973542078   1.0000000
B2   B   0.722344643732519   0.611217263843557   0.124667191917945   1.0000000
B2   B   0.555522946118418   0.110991767620894   0.124868593059707   1.0000000
B2   B   0.388798712523245   0.611199704478246   0.625208026457922   1.0000000
B2   B   0.888905306995372   0.111119320164357   0.124910054122854   1.0000000
B2   B   0.222208719334426   0.777771026333882   0.625081107409014   1.0000000
B2   B   0.055538018035874   0.277786643499802   0.625050204554009   1.0000000
B2   B   0.388714076086541   0.277563256958712   0.625699604574156   1.0000000
B2   B   0.555522946118418   0.777864511830859   0.625131406940293   1.0000000
B2   B   0.888984324007988   0.777845379613303   0.625068119888668   1.0000000
B2   B   0.722266875347344   0.277720472291847   0.625153416887473   1.0000000
B2   B   0.055610626625652   0.777793732171394   0.124918999215371   1.0000000
B2   B   0.388837308844178   0.777805280664302   0.124938400018604   1.0000000
B2   B   0.222130212274546   0.277731772803941   0.124636644707071   1.0000000
B2   B   0.722266875347344   0.777879736388834   0.124846583112526   1.0000000
B2   B   0.555516306734407   0.277614690691785   0.124446498348874   1.0000000
B2   B   0.888926924651963   0.277782583125826   0.124920718238927   1.0000000
B2   B   0.055567362772547   0.444478381917917   0.625044832238290   1.0000000
B2   B   0.222187184242507   0.944365799558279   0.625057247811369   1.0000000
B2   B   0.555528792296317   0.944431062814823   0.625097766701380   1.0000000
B2   B   0.388714076086541   0.444484152461165   0.625699604574156   1.0000000
B2   B   0.888926924651963   0.944477674859472   0.625079281761074   1.0000000
B2   B   0.055567362772547   0.944422314187960   0.124955167761710   1.0000000
B2   B   0.722344643732519   0.444460713222298   0.625332808082054   1.0000000
B2   B   0.388837308844178   0.944365361513213   0.124938400018604   1.0000000
B2   B   0.222140593560702   0.444481101021005   0.124821269630539   1.0000000
B2   B   0.222187184242507   0.611154718017564   0.124942752188631   1.0000000
B2   B   0.555574494414392   0.444453913873860   0.124128199821762   1.0000000
B2   B   0.722233411670946   0.944484027845325   0.124879024436849   1.0000000
B2   B   0.888984324007988   0.444472277728020   0.124931880111332   1.0000000
B2   B   0.055610626625652   0.611150227787593   0.625081000784629   1.0000000
B2   B   0.222140593560702   0.110992825873033   0.625178730369461   1.0000000
B2   B   0.722344643732519   0.611217263843557   0.625332808082054   1.0000000
B2   B   0.555522946118418   0.110991767620894   0.625131406940293   1.0000000
B2   B   0.888905306995372   0.111119320164357   0.625089945877147   1.0000000


