data_1
_audit_creation_method   'vasp2cif'
_cell_length_a    14.93631414619966
_cell_length_b    14.936314146199727
_cell_length_c    13.341276283792837
_cell_angle_alpha    90.0
_cell_angle_beta    90.0
_cell_angle_gamma    119.99999999999984

_symmetry_space_group_name_H-M    'P 1'
loop_
_atom_site_label
_atom_site_type_symbol
_atom_site_fract_x
_atom_site_fract_y
_atom_site_fract_z
_atom_site_occupancy
C2   C   0.388270173392565   0.438605998113499   0.375000000000000   1.0000000
C2   C   0.433720924300553   0.380115196976763   0.375000000000000   1.0000000
N2   N   0.111094393438322   0.055571236768372   0.124917658336116   1.0000000
N2   N   0.611144287513330   0.555627054765623   0.123852551551993   1.0000000
N2   N   0.444447989480108   0.055570298859656   0.124903463967326   1.0000000
N2   N   0.944434640918633   0.555539863332759   0.124913727992742   1.0000000
N2   N   0.777759503478377   0.055551451325672   0.124912053458696   1.0000000
N2   N   0.111101612069914   0.722212307480697   0.625103719327211   1.0000000
N2   N   0.444449837736697   0.722212134444090   0.625147893013483   1.0000000
N2   N   0.277769403726180   0.222237027798589   0.625127945790776   1.0000000
N2   N   0.777783091811166   0.722245142735085   0.625175541453655   1.0000000
N2   N   0.611128068641136   0.222219310915528   0.625140309458435   1.0000000
N2   N   0.944416802688821   0.222202207527036   0.625122000763158   1.0000000
N2   N   0.277776691425744   0.722206345573805   0.124905994157199   1.0000000
N2   N   0.111077458569379   0.222210136840992   0.124866727473079   1.0000000
N2   N   0.444444123389753   0.222231335640711   0.124734947680159   1.0000000
N2   N   0.611117314142029   0.722224881319671   0.124827277339212   1.0000000
N2   N   0.944431982382411   0.722222608248987   0.124912504787532   1.0000000
N2   N   0.777773989192082   0.222206671947908   0.124917775214328   1.0000000
N2   N   0.111100069253570   0.888901022372979   0.625109336749742   1.0000000
N2   N   0.444444373654292   0.888891109475338   0.625105875325047   1.0000000
N2   N   0.277734242470462   0.388854197864342   0.625617302558012   1.0000000
N2   N   0.611160129975664   0.388833856560473   0.626186954346635   1.0000000
N2   N   0.777772440998925   0.888902970337891   0.625071953534296   1.0000000
N2   N   0.944437013058257   0.388867596762979   0.625074891945636   1.0000000
N2   N   0.111085702653673   0.388859417234682   0.124857142875519   1.0000000
N2   N   0.277776573583593   0.888896511586826   0.124886100958315   1.0000000
N2   N   0.611104544464269   0.888889313385005   0.124945104210770   1.0000000
N2   N   0.444451321088254   0.388856506324742   0.124007850302930   1.0000000
N2   N   0.944436382036466   0.888908940903334   0.124906564203566   1.0000000
N2   N   0.777793735568648   0.388870677817516   0.124831695577526   1.0000000
N2   N   0.277769111143738   0.555525237346796   0.625144822926323   1.0000000
N2   N   0.111094393438322   0.055571236768372   0.625082341663884   1.0000000
N2   N   0.611144287513330   0.555627054765623   0.626147448448007   1.0000000
N2   N   0.444447989480108   0.055570298859656   0.625096536032674   1.0000000
N2   N   0.944434640918633   0.555539863332759   0.625086272007257   1.0000000
N2   N   0.111100025167681   0.555530016952189   0.124910097169370   1.0000000
N2   N   0.777759503478377   0.055551451325672   0.625087946541304   1.0000000
N2   N   0.277772609343429   0.055578374333024   0.124922104012829   1.0000000
N2   N   0.444446398864706   0.555558965158008   0.124360756110200   1.0000000
N2   N   0.777769487701979   0.555549307995527   0.124768870387146   1.0000000
N2   N   0.611103554023580   0.055556332720809   0.124944699254169   1.0000000
N2   N   0.444446398864706   0.555558965158008   0.625639243889800   1.0000000
N2   N   0.944422561419618   0.055559632194193   0.124889636164532   1.0000000
N2   N   0.277776691425744   0.722206345573805   0.625094005842802   1.0000000
N2   N   0.111077458569379   0.222210136840992   0.625133272526921   1.0000000
N2   N   0.444444123389753   0.222231335640711   0.625265052319842   1.0000000
N2   N   0.611117314142029   0.722224881319671   0.625172722660788   1.0000000
N2   N   0.944431982382411   0.722222608248987   0.625087495212468   1.0000000
N2   N   0.777773989192082   0.222206671947908   0.625082224785671   1.0000000
N2   N   0.111101612069914   0.722212307480697   0.124896280672789   1.0000000
N2   N   0.444449837736697   0.722212134444090   0.124852106986516   1.0000000
N2   N   0.277769403726180   0.222237027798589   0.124872054209224   1.0000000
N2   N   0.777783091811166   0.722245142735085   0.124824458546346   1.0000000
N2   N   0.611128068641136   0.222219310915528   0.124859690541564   1.0000000
N2   N   0.944416802688821   0.222202207527036   0.124877999236843   1.0000000
N2   N   0.111085702653673   0.388859417234682   0.625142857124481   1.0000000
N2   N   0.277776573583593   0.888896511586826   0.625113899041685   1.0000000
N2   N   0.611104544464269   0.888889313385005   0.625054895789230   1.0000000
N2   N   0.444451321088254   0.388856506324742   0.625992149697070   1.0000000
N2   N   0.944436382036466   0.888908940903334   0.625093435796434   1.0000000
N2   N   0.111100069253570   0.888901022372979   0.124890663250258   1.0000000
N2   N   0.777793735568648   0.388870677817516   0.625168304422474   1.0000000
N2   N   0.444444373654292   0.888891109475338   0.124894124674955   1.0000000
N2   N   0.277734242470462   0.388854197864342   0.124382697441988   1.0000000
N2   N   0.277769111143738   0.555525237346796   0.124855177073677   1.0000000
N2   N   0.611160129975664   0.388833856560473   0.123813045653365   1.0000000
N2   N   0.777772440998925   0.888902970337891   0.124928046465704   1.0000000
N2   N   0.944437013058257   0.388867596762979   0.124925108054364   1.0000000
N2   N   0.111100025167681   0.555530016952189   0.625089902830630   1.0000000
N2   N   0.277772609343429   0.055578374333024   0.625077895987172   1.0000000
N2   N   0.777769487701979   0.555549307995527   0.625231129612854   1.0000000
N2   N   0.611103554023580   0.055556332720809   0.625055300745831   1.0000000
N2   N   0.944422561419618   0.055559632194193   0.625110363835468   1.0000000
N2   N   0.052438820914350   0.108801993853451   0.375000000000000   1.0000000
N2   N   0.559348871785599   0.603120208602556   0.375000000000000   1.0000000
N2   N   0.389499357173455   0.113628283398892   0.375000000000000   1.0000000
N2   N   0.894068458932063   0.613726552474120   0.375000000000000   1.0000000
N2   N   0.720964779746346   0.112148961200157   0.375000000000000   1.0000000
N2   N   0.055561700462268   0.777779799713375   0.875000000000000   1.0000000
N2   N   0.388886121544198   0.777783344200887   0.875000000000000   1.0000000
N2   N   0.222225993791433   0.277777224284683   0.875000000000000   1.0000000
N2   N   0.722222631912484   0.777774773961403   0.875000000000000   1.0000000
N2   N   0.555547025196890   0.277767167489344   0.875000000000000   1.0000000
N2   N   0.888892742686600   0.277782911496317   0.875000000000000   1.0000000
N2   N   0.224696788254004   0.778574463104244   0.375000000000000   1.0000000
N2   N   0.052604435728673   0.276598868229977   0.375000000000000   1.0000000
N2   N   0.383990426472233   0.275617070846828   0.375000000000000   1.0000000
N2   N   0.556750727540843   0.774624775900974   0.375000000000000   1.0000000
N2   N   0.890539445752714   0.777848659295760   0.375000000000000   1.0000000
N2   N   0.720999145008963   0.280688797326052   0.375000000000000   1.0000000
N2   N   0.055557522167287   0.944442228526023   0.875000000000000   1.0000000
N2   N   0.388886854484631   0.944440295794904   0.875000000000000   1.0000000
N2   N   0.222224724798907   0.444452060455138   0.875000000000000   1.0000000
N2   N   0.555555426975430   0.444446763815954   0.875000000000000   1.0000000
N2   N   0.722221145222043   0.944441676688417   0.875000000000000   1.0000000
N2   N   0.888897851376521   0.444451324591889   0.875000000000000   1.0000000
N2   N   0.054979487502040   0.444531158346218   0.375000000000000   1.0000000
N2   N   0.223740121185078   0.945385341136092   0.375000000000000   1.0000000
N2   N   0.556077086816205   0.945174950882961   0.375000000000000   1.0000000
N2   N   0.887670572659265   0.943120941063733   0.375000000000000   1.0000000
N2   N   0.724223326828087   0.449089049158987   0.375000000000000   1.0000000
N2   N   0.222219604379340   0.611117969817869   0.875000000000000   1.0000000
N2   N   0.055558083761777   0.111107165838844   0.875000000000000   1.0000000
N2   N   0.555550981685186   0.611113330666364   0.875000000000000   1.0000000
N2   N   0.388883324294941   0.111097196067586   0.875000000000000   1.0000000
N2   N   0.888902698343320   0.611116544144956   0.875000000000000   1.0000000
N2   N   0.058508083776654   0.612125419252828   0.375000000000000   1.0000000
N2   N   0.722219079221658   0.111108656349741   0.875000000000000   1.0000000
N2   N   0.220052242437797   0.109341513554524   0.375000000000000   1.0000000
N2   N   0.391157403613308   0.609877794262350   0.375000000000000   1.0000000
N2   N   0.726320759465683   0.611066292334102   0.375000000000000   1.0000000
N2   N   0.555689096484429   0.116058504085021   0.375000000000000   1.0000000
N2   N   0.388883776585911   0.611118051638871   0.875000000000000   1.0000000
N2   N   0.886680639621217   0.110355992277604   0.375000000000000   1.0000000
N2   N   0.222221794428471   0.777780068717196   0.875000000000000   1.0000000
N2   N   0.055559796451120   0.277780393256757   0.875000000000000   1.0000000
N2   N   0.388886597244962   0.277772515385049   0.875000000000000   1.0000000
N2   N   0.555551884048867   0.777777501743951   0.875000000000000   1.0000000
N2   N   0.888897060077801   0.777780398651276   0.875000000000000   1.0000000
N2   N   0.722221597050955   0.277778851073451   0.875000000000000   1.0000000
N2   N   0.058532365565694   0.779146838536752   0.375000000000000   1.0000000
N2   N   0.390779480899339   0.777847452296228   0.375000000000000   1.0000000
N2   N   0.216533346173376   0.273648715929769   0.375000000000000   1.0000000
N2   N   0.722896625617109   0.776098790213133   0.375000000000000   1.0000000
N2   N   0.555361264034828   0.289740348826402   0.375000000000000   1.0000000
N2   N   0.886985450849750   0.278211246479372   0.375000000000000   1.0000000
N2   N   0.055559982524702   0.444452444749725   0.875000000000000   1.0000000
N2   N   0.222221025894108   0.944438882315017   0.875000000000000   1.0000000
N2   N   0.555551265363802   0.944442849307941   0.875000000000000   1.0000000
N2   N   0.388891699276967   0.444451196060711   0.875000000000000   1.0000000
N2   N   0.888893353710647   0.944442684283712   0.875000000000000   1.0000000
N2   N   0.055341395378318   0.943724039610254   0.375000000000000   1.0000000
N2   N   0.722231476356066   0.444451025236384   0.875000000000000   1.0000000
N2   N   0.390420866284225   0.946050433839946   0.375000000000000   1.0000000
N2   N   0.220044890855317   0.442840385865223   0.375000000000000   1.0000000
N2   N   0.224284070807922   0.610886762795931   0.375000000000000   1.0000000
N2   N   0.721442888333569   0.943611675140025   0.375000000000000   1.0000000
N2   N   0.889378407250703   0.445986341924104   0.375000000000000   1.0000000
N2   N   0.055560833904776   0.611115346297185   0.875000000000000   1.0000000
N2   N   0.222220184034785   0.111103902079120   0.875000000000000   1.0000000
N2   N   0.722231730132556   0.611113867915260   0.875000000000000   1.0000000
N2   N   0.555549949731293   0.111102816508270   0.875000000000000   1.0000000
N2   N   0.888891957630016   0.111109071759203   0.875000000000000   1.0000000
B2   B   0.109218005745605   0.054218971019847   0.375000000000000   1.0000000
B2   B   0.614373106398245   0.540147293757114   0.375000000000000   1.0000000
B2   B   0.444963847046234   0.058004965820476   0.375000000000000   1.0000000
B2   B   0.947450812567347   0.556966850512452   0.375000000000000   1.0000000
B2   B   0.775703281160631   0.055127621661277   0.375000000000000   1.0000000
B2   B   0.111104950687244   0.722213091868528   0.875000000000000   1.0000000
B2   B   0.444439769127924   0.722183414641726   0.875000000000000   1.0000000
B2   B   0.277835399711040   0.222272112004398   0.875000000000000   1.0000000
B2   B   0.777733890113896   0.722159002453536   0.875000000000000   1.0000000
B2   B   0.611091052031912   0.222260392944355   0.875000000000000   1.0000000
B2   B   0.944460658747379   0.222240437712143   0.875000000000000   1.0000000
B2   B   0.279826559018379   0.722149416427283   0.375000000000000   1.0000000
B2   B   0.106671197723056   0.219551198363752   0.375000000000000   1.0000000
B2   B   0.445261737573418   0.225911841245218   0.375000000000000   1.0000000
B2   B   0.611827800419226   0.715597907045310   0.375000000000000   1.0000000
B2   B   0.947596982532211   0.723846288528101   0.375000000000000   1.0000000
B2   B   0.775611167918891   0.223793592395380   0.375000000000000   1.0000000
B2   B   0.111110022025206   0.888881086838903   0.875000000000000   1.0000000
B2   B   0.444438248451702   0.888875050692692   0.875000000000000   1.0000000
B2   B   0.277853886698154   0.388931260853427   0.875000000000000   1.0000000
B2   B   0.611086461062005   0.388924678350099   0.875000000000000   1.0000000
B2   B   0.777751280611832   0.888837377607036   0.875000000000000   1.0000000
B2   B   0.944447180439454   0.388913325677596   0.875000000000000   1.0000000
B2   B   0.109594753235457   0.388224429958292   0.375000000000000   1.0000000
B2   B   0.279513458731349   0.889845407245488   0.375000000000000   1.0000000
B2   B   0.610525754625471   0.886839297291294   0.375000000000000   1.0000000
B2   B   0.944232774591062   0.888190055561017   0.375000000000000   1.0000000
B2   B   0.777245451805126   0.392085032039958   0.375000000000000   1.0000000
B2   B   0.277811646087931   0.555556722081077   0.875000000000000   1.0000000
B2   B   0.111133282098311   0.055565114211325   0.875000000000000   1.0000000
B2   B   0.611080859944079   0.555516607779392   0.875000000000000   1.0000000
B2   B   0.444446078139364   0.055573802336122   0.875000000000000   1.0000000
B2   B   0.944424533863083   0.555556775381130   0.875000000000000   1.0000000
B2   B   0.113106955865141   0.555804093900169   0.375000000000000   1.0000000
B2   B   0.777764488447224   0.055541900077204   0.875000000000000   1.0000000
B2   B   0.278339584998901   0.056547702395987   0.375000000000000   1.0000000
B2   B   0.448572713171361   0.553763601739172   0.375000000000000   1.0000000
B2   B   0.783585211725581   0.558763356606351   0.375000000000000   1.0000000
B2   B   0.610101818209685   0.057809978458117   0.375000000000000   1.0000000
B2   B   0.444461495909860   0.555533462505223   0.875000000000000   1.0000000
B2   B   0.941762395545976   0.053920094575655   0.375000000000000   1.0000000
B2   B   0.277785280644794   0.722211381032587   0.875000000000000   1.0000000
B2   B   0.111162018576646   0.222253597463052   0.875000000000000   1.0000000
B2   B   0.444465461981213   0.222271870796802   0.875000000000000   1.0000000
B2   B   0.611078790769095   0.722151368685795   0.875000000000000   1.0000000
B2   B   0.944416213298254   0.722195091635391   0.875000000000000   1.0000000
B2   B   0.777762443258408   0.222245216619774   0.875000000000000   1.0000000
B2   B   0.113721085753075   0.723148481623129   0.375000000000000   1.0000000
B2   B   0.445671731486465   0.720513813673234   0.375000000000000   1.0000000
B2   B   0.272683329817161   0.219661172173141   0.375000000000000   1.0000000
B2   B   0.778866145515075   0.720800301666190   0.375000000000000   1.0000000
B2   B   0.609663719408561   0.230232588030980   0.375000000000000   1.0000000
B2   B   0.941793211776232   0.221777936760656   0.375000000000000   1.0000000
B2   B   0.111155970281399   0.388917934703098   0.875000000000000   1.0000000
B2   B   0.277782140270633   0.888888309887611   0.875000000000000   1.0000000
B2   B   0.611088625003688   0.888847690669771   0.875000000000000   1.0000000
B2   B   0.444489075358789   0.388937225900019   0.875000000000000   1.0000000
B2   B   0.944429288045578   0.888858110831550   0.875000000000000   1.0000000
B2   B   0.112696770287129   0.889745424082176   0.375000000000000   1.0000000
B2   B   0.777745856596144   0.388917694654614   0.875000000000000   1.0000000
B2   B   0.445297506032060   0.889293702053907   0.375000000000000   1.0000000
B2   B   0.273157222485368   0.384639303625600   0.375000000000000   1.0000000
B2   B   0.279673654248895   0.554267013181711   0.375000000000000   1.0000000
B2   B   0.611403283332040   0.410175340296667   0.375000000000000   1.0000000
B2   B   0.776542548671964   0.886993019843367   0.375000000000000   1.0000000
B2   B   0.943699135475823   0.389629508471327   0.375000000000000   1.0000000
B2   B   0.111123478274551   0.555563433811505   0.875000000000000   1.0000000
B2   B   0.277799217266805   0.055578496582629   0.875000000000000   1.0000000
B2   B   0.777733148329605   0.555538105360185   0.875000000000000   1.0000000
B2   B   0.611094538694364   0.055556628119808   0.875000000000000   1.0000000
B2   B   0.944451462299513   0.055546840709600   0.875000000000000   1.0000000
B2   B   0.055565230617876   0.111163888587703   0.125041446836846   1.0000000
B2   B   0.555536812004170   0.610913589082877   0.125053830195192   1.0000000
B2   B   0.388985715867107   0.111300408390310   0.125093941057916   1.0000000
B2   B   0.888689596660255   0.611001534389160   0.125187295464631   1.0000000
B2   B   0.722206254896492   0.111134950018602   0.125090034939082   1.0000000
B2   B   0.055473257154466   0.777729787497196   0.624937509024253   1.0000000
B2   B   0.388937800570300   0.777708628671940   0.624896653739560   1.0000000
B2   B   0.222339064236494   0.277925703389418   0.624995884088869   1.0000000
B2   B   0.722130585764855   0.777646115396009   0.624836813435578   1.0000000
B2   B   0.555650774984943   0.278015979002841   0.624980209830886   1.0000000
B2   B   0.888859652759227   0.277782288707830   0.624919278694180   1.0000000
B2   B   0.222228764925723   0.777744812001084   0.125050628114878   1.0000000
B2   B   0.055579193852110   0.277800269327147   0.125046154088257   1.0000000
B2   B   0.389081797051330   0.278072621511497   0.124902782503610   1.0000000
B2   B   0.555559223329029   0.777654596965392   0.125181683073809   1.0000000
B2   B   0.888749837978585   0.777687631886302   0.125138302764868   1.0000000
B2   B   0.722189430792776   0.277842235190198   0.125145120590812   1.0000000
B2   B   0.055521896184431   0.944460070941454   0.624950115902952   1.0000000
B2   B   0.388935309007901   0.944497395245363   0.624936806309398   1.0000000
B2   B   0.222334998510879   0.444396172949810   0.624935785648763   1.0000000
B2   B   0.555580586703326   0.444467507699009   0.624156535163381   1.0000000
B2   B   0.722186900587005   0.944394321785420   0.624893624605385   1.0000000
B2   B   0.888785449964015   0.444403423112474   0.624836800844073   1.0000000
B2   B   0.055554572938096   0.444402720880240   0.125104189016866   1.0000000
B2   B   0.222241235166312   0.944502663413768   0.125045013654340   1.0000000
B2   B   0.555568640371032   0.944435467453468   0.125115003740967   1.0000000
B2   B   0.389038466772875   0.444415485583486   0.125506035038927   1.0000000
B2   B   0.888831619679933   0.944410651724921   0.125070169203308   1.0000000
B2   B   0.722036816611119   0.444397923058257   0.125126124264360   1.0000000
B2   B   0.222270326209062   0.611022666488111   0.624867644817677   1.0000000
B2   B   0.055565230617876   0.111163888587703   0.624958553163155   1.0000000
B2   B   0.555536812004170   0.610913589082877   0.624946169804808   1.0000000
B2   B   0.388985715867107   0.111300408390310   0.624906058942084   1.0000000
B2   B   0.888689596660255   0.611001534389160   0.624812704535368   1.0000000
B2   B   0.055489077537012   0.611039493545196   0.125092109286596   1.0000000
B2   B   0.722206254896492   0.111134950018602   0.624909965060918   1.0000000
B2   B   0.222295466639322   0.111257512375906   0.125072508434846   1.0000000
B2   B   0.388989389545433   0.610961218098135   0.125138772786815   1.0000000
B2   B   0.721991203983680   0.610949204559443   0.125134220040735   1.0000000
B2   B   0.555598277647998   0.111228307562552   0.125145145236604   1.0000000
B2   B   0.388989389545433   0.610961218098135   0.624861227213186   1.0000000
B2   B   0.888865221522034   0.111113861669877   0.125033386156872   1.0000000
B2   B   0.222228764925723   0.777744812001084   0.624949371885124   1.0000000
B2   B   0.055579193852110   0.277800269327147   0.624953845911743   1.0000000
B2   B   0.389081797051330   0.278072621511497   0.625097217496390   1.0000000
B2   B   0.555559223329029   0.777654596965392   0.624818316926191   1.0000000
B2   B   0.888749837978585   0.777687631886302   0.624861697235132   1.0000000
B2   B   0.722189430792776   0.277842235190198   0.624854879409188   1.0000000
B2   B   0.055473257154466   0.777729787497196   0.125062490975747   1.0000000
B2   B   0.388937800570300   0.777708628671940   0.125103346260441   1.0000000
B2   B   0.222339064236494   0.277925703389418   0.125004115911131   1.0000000
B2   B   0.722130585764855   0.777646115396009   0.125163186564421   1.0000000
B2   B   0.555650774984943   0.278015979002841   0.125019790169113   1.0000000
B2   B   0.888859652759227   0.277782288707830   0.125080721305820   1.0000000
B2   B   0.055554572938096   0.444402720880240   0.624895810983134   1.0000000
B2   B   0.222241235166312   0.944502663413768   0.624954986345661   1.0000000
B2   B   0.555568640371032   0.944435467453468   0.624884996259032   1.0000000
B2   B   0.389038466772875   0.444415485583486   0.624493964961074   1.0000000
B2   B   0.888831619679933   0.944410651724921   0.624929830796692   1.0000000
B2   B   0.055521896184431   0.944460070941454   0.125049884097047   1.0000000
B2   B   0.722036816611119   0.444397923058257   0.624873875735640   1.0000000
B2   B   0.388935309007901   0.944497395245363   0.125063193690602   1.0000000
B2   B   0.222334998510879   0.444396172949810   0.125064214351237   1.0000000
B2   B   0.222270326209062   0.611022666488111   0.125132355182323   1.0000000
B2   B   0.555580586703326   0.444467507699009   0.125843464836619   1.0000000
B2   B   0.722186900587005   0.944394321785420   0.125106375394614   1.0000000
B2   B   0.888785449964015   0.444403423112474   0.125163199155928   1.0000000
B2   B   0.055489077537012   0.611039493545196   0.624907890713405   1.0000000
B2   B   0.222295466639322   0.111257512375906   0.624927491565153   1.0000000
B2   B   0.721991203983680   0.610949204559443   0.624865779959266   1.0000000
B2   B   0.555598277647998   0.111228307562552   0.624854854763395   1.0000000
B2   B   0.888865221522034   0.111113861669877   0.624966613843128   1.0000000


