data_1
_audit_creation_method   'vasp2cif'
_cell_length_a    17.52789999999977
_cell_length_b    17.52789999999977
_cell_length_c    15.0
_cell_angle_alpha    90.0
_cell_angle_beta    90.0
_cell_angle_gamma    119.99999999999916

_symmetry_space_group_name_H-M    'P 1'
loop_
_atom_site_label
_atom_site_type_symbol
_atom_site_fract_x
_atom_site_fract_y
_atom_site_fract_z
_atom_site_occupancy
B2   B   0.904782117826694   0.952370607140178   0.111025862603017   1.0000000
B2   B   0.904772916307595   0.095229104888401   0.111036239402419   1.0000000
B2   B   0.904772916307595   0.238115117745193   0.111036239402419   1.0000000
B2   B   0.904782117826694   0.380984528568517   0.111025862603017   1.0000000
B2   B   0.904806849429369   0.523854328971294   0.111033299435250   1.0000000
B2   B   0.904948424498362   0.666760721190679   0.111038111680138   1.0000000
B2   B   0.904806849429369   0.809525538341078   0.111033299435250   1.0000000
B2   B   0.047627354517202   0.952374666678802   0.111027121696874   1.0000000
B2   B   0.047631414055825   0.095219903369302   0.111025862603017   1.0000000
B2   B   0.047640077474211   0.238106547678106   0.111028646647392   1.0000000
B2   B   0.047631414055825   0.380984528568517   0.111025862603017   1.0000000
B2   B   0.047627354517202   0.523827417277399   0.111027121696874   1.0000000
B2   B   0.047655732381158   0.666686930742922   0.111031212119351   1.0000000
B2   B   0.047655732381158   0.809543531077235   0.111031212119351   1.0000000
B2   B   0.190458490118769   0.952346288814846   0.111031212119351   1.0000000
B2   B   0.190476482854925   0.095195171766628   0.111033299435250   1.0000000
B2   B   0.190429490614365   0.238013500355418   0.111024165142720   1.0000000
B2   B   0.190429490614365   0.380989008140948   0.111024165142720   1.0000000
B2   B   0.190476482854925   0.523854328971294   0.111033299435250   1.0000000
B2   B   0.190458490118769   0.666686930742922   0.111031212119351   1.0000000
B2   B   0.190476437651000   0.809525583545003   0.111023947933823   1.0000000
B2   B   0.333315090454076   0.952346288814846   0.111031212119351   1.0000000
B2   B   0.333241300006319   0.095053596697635   0.111038111680138   1.0000000
B2   B   0.333246173038304   0.237768840099557   0.111035535319600   1.0000000
B2   B   0.332919062356335   0.380746040118667   0.111027265959718   1.0000000
B2   B   0.333246173038304   0.524050350820749   0.111035535319600   1.0000000
B2   B   0.333241300006319   0.666760721190679   0.111038111680138   1.0000000
B2   B   0.333315090454076   0.809543531077235   0.111031212119351   1.0000000
B2   B   0.476174603919599   0.952374666678802   0.111027121696874   1.0000000
B2   B   0.476147692225704   0.095195171766628   0.111033299435250   1.0000000
B2   B   0.475951670376249   0.237768840099557   0.111035535319600   1.0000000
B2   B   0.474789532551151   0.378150061787306   0.111032866814503   1.0000000
B2   B   0.474789532551151   0.525212488645847   0.111032866814503   1.0000000
B2   B   0.475951670376249   0.666755848158694   0.111035535319600   1.0000000
B2   B   0.476147692225704   0.809525538341078   0.111033299435250   1.0000000
B2   B   0.619017492627486   0.952370607140178   0.111025862603017   1.0000000
B2   B   0.619017492627486   0.095219903369302   0.111025862603017   1.0000000
B2   B   0.619013013055055   0.238013500355418   0.111024165142720   1.0000000
B2   B   0.619255981077336   0.380746040118667   0.111027265959718   1.0000000
B2   B   0.621851959408698   0.525212488645847   0.111032866814503   1.0000000
B2   B   0.619255981077336   0.667082958840663   0.111027265959718   1.0000000
B2   B   0.619013013055055   0.809572530581638   0.111024165142720   1.0000000
B2   B   0.761895473517897   0.952361943721793   0.111028646647392   1.0000000
B2   B   0.761886903450810   0.095229104888401   0.111036239402419   1.0000000
B2   B   0.761895473517897   0.238106547678106   0.111028646647392   1.0000000
B2   B   0.761988520840585   0.380989008140948   0.111024165142720   1.0000000
B2   B   0.762233181096447   0.524050350820749   0.111035535319600   1.0000000
B2   B   0.762233181096447   0.666755848158694   0.111035535319600   1.0000000
B2   B   0.761988520840585   0.809572530581638   0.111024165142720   1.0000000
N2   N   0.952342285801097   0.904709077913252   0.111010017246388   1.0000000
N2   N   0.952395518501187   0.047605883416819   0.111012238345691   1.0000000
N2   N   0.952414657015829   0.190492125884414   0.111013012114169   1.0000000
N2   N   0.952395518501187   0.333359229837368   0.111012238345691   1.0000000
N2   N   0.952342285801097   0.476204514196841   0.111010017246388   1.0000000
N2   N   0.952318322888337   0.619032072124292   0.111011317991250   1.0000000
N2   N   0.952318322888337   0.761857557074043   0.111011317991250   1.0000000
N2   N   0.095236456687616   0.904764945230383   0.111011450338542   1.0000000
N2   N   0.095292324004747   0.047659116116909   0.111010017246388   1.0000000
N2   N   0.095351465596276   0.190536139903821   0.111008984467670   1.0000000
N2   N   0.095351465596276   0.333386632001459   0.111008984467670   1.0000000
N2   N   0.095292324004747   0.476204514196841   0.111010017246388   1.0000000
N2   N   0.095236456687616   0.619044529323234   0.111011450338542   1.0000000
N2   N   0.095228959495136   0.761900988680572   0.111011024780207   1.0000000
N2   N   0.238100413237434   0.904772442422863   0.111011024780207   1.0000000
N2   N   0.238143844843963   0.047683079029669   0.111011317991250   1.0000000
N2   N   0.238418684387263   0.190754790337957   0.111007278183649   1.0000000
N2   N   0.238467910315149   0.333519608312072   0.111003793173632   1.0000000
N2   N   0.238418684387263   0.476235200358302   0.111007278183649   1.0000000
N2   N   0.238143844843963   0.619032072124292   0.111011317991250   1.0000000
N2   N   0.238100413237434   0.761900988680572   0.111011024780207   1.0000000
N2   N   0.380956872594765   0.904764945230383   0.111011450338542   1.0000000
N2   N   0.380969329793707   0.047683079029669   0.111011317991250   1.0000000
N2   N   0.381089455014246   0.190748814420491   0.111006994536311   1.0000000
N2   N   0.381667654080693   0.334141303156169   0.111005746119431   1.0000000
N2   N   0.381667654080693   0.476097657233519   0.111005746119431   1.0000000
N2   N   0.381089455014246   0.618911946903753   0.111006994536311   1.0000000
N2   N   0.380969329793707   0.761857557074043   0.111011317991250   1.0000000
N2   N   0.523796887720156   0.904709077913252   0.111010017246388   1.0000000
N2   N   0.523796887720156   0.047659116116909   0.111010017246388   1.0000000
N2   N   0.523766201558695   0.190754790337957   0.111007278183649   1.0000000
N2   N   0.523903744683477   0.334141303156169   0.111005746119431   1.0000000
N2   N   0.523903744683477   0.618333747837305   0.111005746119431   1.0000000
N2   N   0.523766201558695   0.761582717530743   0.111007278183649   1.0000000
N2   N   0.666614769915538   0.904649936321722   0.111008984467670   1.0000000
N2   N   0.666642172079629   0.047605883416819   0.111012238345691   1.0000000
N2   N   0.666614769915538   0.190536139903821   0.111008984467670   1.0000000
N2   N   0.666481793604924   0.333519608312072   0.111003793173632   1.0000000
N2   N   0.665860098760828   0.476097657233519   0.111005746119431   1.0000000
N2   N   0.665860098760828   0.618333747837305   0.111005746119431   1.0000000
N2   N   0.666481793604924   0.761533491602857   0.111003793173632   1.0000000
N2   N   0.809465262014178   0.904649936321722   0.111008984467670   1.0000000
N2   N   0.809509276033584   0.047586744902177   0.111013012114169   1.0000000
N2   N   0.809509276033584   0.190492125884414   0.111013012114169   1.0000000
N2   N   0.809465262014178   0.333386632001459   0.111008984467670   1.0000000
N2   N   0.809246611580042   0.476235200358302   0.111007278183649   1.0000000
N2   N   0.809252587497508   0.618911946903753   0.111006994536311   1.0000000
N2   N   0.809246611580042   0.761582717530743   0.111007278183649   1.0000000
O2   O   0.523810499174999   0.476190902741997   0.111029243827431   1.0000000


