data_1
_audit_creation_method   'vasp2cif'
_cell_length_a    17.52789999999977
_cell_length_b    17.52789999999977
_cell_length_c    15.0
_cell_angle_alpha    90.0
_cell_angle_beta    90.0
_cell_angle_gamma    119.99999999999916

_symmetry_space_group_name_H-M    'P 1'
loop_
_atom_site_label
_atom_site_type_symbol
_atom_site_fract_x
_atom_site_fract_y
_atom_site_fract_z
_atom_site_occupancy
B2   B   0.904227495388164   0.952353892004294   0.110955290457025   1.0000000
B2   B   0.904610617588316   0.095391083741684   0.111029889874430   1.0000000
B2   B   0.904885183953000   0.238250808251258   0.111044569426512   1.0000000
B2   B   0.905160461338045   0.381010839836285   0.110977980249540   1.0000000
B2   B   0.905734906380639   0.524085025583227   0.111019196473619   1.0000000
B2   B   0.905561970320324   0.667253306898018   0.111077823748527   1.0000000
B2   B   0.905013233761398   0.810116491092396   0.111015176508027   1.0000000
B2   B   0.047359751198547   0.952642015178449   0.110982620075640   1.0000000
B2   B   0.047647733728712   0.095774147361836   0.110955288856030   1.0000000
B2   B   0.047964656562917   0.238677392766830   0.110952736694688   1.0000000
B2   B   0.047949400577953   0.381275310434832   0.110965839819675   1.0000000
B2   B   0.047859794733017   0.524128132562619   0.110967170675901   1.0000000
B2   B   0.047667768596763   0.667079889767291   0.111032339960037   1.0000000
B2   B   0.047603390482159   0.809953031695861   0.111007336059549   1.0000000
B2   B   0.190048715658137   0.952398342833846   0.111007337053549   1.0000000
B2   B   0.189885313972601   0.094988555012602   0.111015174489027   1.0000000
B2   B   0.191490516718808   0.239322687056708   0.111001600639951   1.0000000
B2   B   0.191438095147608   0.382039229287355   0.110989081859136   1.0000000
B2   B   0.190453588815166   0.524542284079257   0.110997459661117   1.0000000
B2   B   0.189881568475665   0.667210472822110   0.111028225199883   1.0000000
B2   B   0.190115946964561   0.809885722331443   0.111015474717694   1.0000000
B2   B   0.332921786660708   0.952333901914234   0.111032342677032   1.0000000
B2   B   0.332748557758975   0.094439830668673   0.111077835486530   1.0000000
B2   B   0.332263018661467   0.236365548312148   0.111071690546940   1.0000000
B2   B   0.337202447380821   0.383296772031145   0.111049877457173   1.0000000
B2   B   0.334346008676874   0.526827905459990   0.111151273062280   1.0000000
B2   B   0.332049850860958   0.667952065217040   0.111188715780259   1.0000000
B2   B   0.332791289987891   0.810120222469334   0.111028223156888   1.0000000
B2   B   0.475873507511377   0.952141793145981   0.110967186546896   1.0000000
B2   B   0.475916772973774   0.094266741651365   0.111019223666622   1.0000000
B2   B   0.475825670620178   0.235893361360231   0.110996088883382   1.0000000
B2   B   0.474026504768736   0.375754411858508   0.111328140620474   1.0000000
B2   B   0.473174140735010   0.665654179485125   0.111151291514286   1.0000000
B2   B   0.475459573363740   0.809547984612835   0.110997465270113   1.0000000
B2   B   0.618726445669174   0.952052347978049   0.110965850549680   1.0000000
B2   B   0.618990894214719   0.094841104683955   0.110977990999540   1.0000000
B2   B   0.619175472040133   0.237375430876542   0.110977809980054   1.0000000
B2   B   0.619772835383328   0.380229207379673   0.110962086894814   1.0000000
B2   B   0.624248889117489   0.525975428320259   0.111328153277472   1.0000000
B2   B   0.616704639745854   0.662798487554181   0.111049891920178   1.0000000
B2   B   0.617962291788646   0.808563315478397   0.110989085339140   1.0000000
B2   B   0.761324240965167   0.952036949297090   0.110952739660685   1.0000000
B2   B   0.761751003553741   0.095116549845996   0.111044574335510   1.0000000
B2   B   0.762084922797983   0.237916640825019   0.111035449312045   1.0000000
B2   B   0.762626258959463   0.380826131689865   0.110977799762052   1.0000000
B2   B   0.764109059658774   0.524176232177827   0.110996079253382   1.0000000
B2   B   0.763636568405854   0.667738889432533   0.111071685957942   1.0000000
B2   B   0.760678798595292   0.808510955828191   0.111001603729952   1.0000000
C2   C   0.526887807149640   0.473116484888360   0.111847491033439   1.0000000
N2   N   0.952213299686509   0.905118053293738   0.110969081141593   1.0000000
N2   N   0.952198270989413   0.047803383686585   0.110958964704010   1.0000000
N2   N   0.952532334941313   0.190743791752699   0.111006958896087   1.0000000
N2   N   0.952623077873256   0.333462855165144   0.110983837180293   1.0000000
N2   N   0.952776681277267   0.476239424109492   0.110936617638170   1.0000000
N2   N   0.952688748658547   0.619318592833833   0.111035680682840   1.0000000
N2   N   0.952535731042653   0.762389409179546   0.111042310775797   1.0000000
N2   N   0.094975067815439   0.905026686951567   0.110968576951436   1.0000000
N2   N   0.094883721365260   0.047788498848493   0.110969084197595   1.0000000
N2   N   0.095827804529903   0.191346371951743   0.110932116347869   1.0000000
N2   N   0.095733520622907   0.333857324249229   0.110927356534273   1.0000000
N2   N   0.095219498016555   0.476434785074140   0.110949533416915   1.0000000
N2   N   0.094880481622845   0.619351236405045   0.110985070905391   1.0000000
N2   N   0.095005748646677   0.762265354621936   0.110990086285611   1.0000000
N2   N   0.237736331948059   0.904995923060327   0.110990082732606   1.0000000
N2   N   0.237612433511453   0.047466086367342   0.111042310130795   1.0000000
N2   N   0.237568250397783   0.190046473188090   0.110986443792503   1.0000000
N2   N   0.239951442770081   0.335260158810636   0.110963720989443   1.0000000
N2   N   0.238007966631335   0.476985963810111   0.110978619101556   1.0000000
N2   N   0.237099258345291   0.619693217140695   0.111033410969649   1.0000000
N2   N   0.237586144390537   0.762415604143460   0.111038047425888   1.0000000
N2   N   0.380650436665953   0.905121294375156   0.110985079139387   1.0000000
N2   N   0.380683206082176   0.047312925473447   0.111035687911838   1.0000000
N2   N   0.380633373109014   0.189484433939555   0.111057058537341   1.0000000
N2   N   0.380288772297766   0.331098193112057   0.111112097679442   1.0000000
N2   N   0.378703431319166   0.478104160945072   0.110901308802497   1.0000000
N2   N   0.379026239152895   0.620975452680104   0.111305706440006   1.0000000
N2   N   0.380308633584304   0.762902593952714   0.111033405657645   1.0000000
N2   N   0.523566980085861   0.904782387334449   0.110949548144917   1.0000000
N2   N   0.523762336795501   0.047224689451736   0.110936653086174   1.0000000
N2   N   0.523856431054468   0.189273939294170   0.110984729557771   1.0000000
N2   N   0.523960832769781   0.330806805632356   0.110945163671562   1.0000000
N2   N   0.521896894147923   0.621294357602836   0.110901381141496   1.0000000
N2   N   0.523015524500889   0.761992944423662   0.110978620267550   1.0000000
N2   N   0.666144262946781   0.904268050407091   0.110927359909280   1.0000000
N2   N   0.666538977813852   0.047378617101742   0.110983847746298   1.0000000
N2   N   0.666835337086750   0.190130521412776   0.110986606829325   1.0000000
N2   N   0.667125122969331   0.332876544306664   0.110934300294293   1.0000000
N2   N   0.669196190335647   0.476040995307215   0.110945188596563   1.0000000
N2   N   0.668904323935945   0.619713107584233   0.111112098215440   1.0000000
N2   N   0.664741210417366   0.760049814401921   0.110963727599445   1.0000000
N2   N   0.808655231437259   0.904173747998094   0.110932119308871   1.0000000
N2   N   0.809257939133299   0.047469344809688   0.111006955931092   1.0000000
N2   N   0.809573789427353   0.190427954330646   0.111039237570212   1.0000000
N2   N   0.809871097542221   0.333166193917253   0.110986614645323   1.0000000
N2   N   0.810727930561830   0.476145150479533   0.110984693831775   1.0000000
N2   N   0.810517549838444   0.619368507558987   0.111057039109340   1.0000000
N2   N   0.809955415446908   0.762433599965215   0.110986446723499   1.0000000


