data_1
_audit_creation_method   'vasp2cif'
_cell_length_a    14.93631414619966
_cell_length_b    14.936314146199727
_cell_length_c    13.341276283792837
_cell_angle_alpha    90.0
_cell_angle_beta    90.0
_cell_angle_gamma    119.99999999999984

_symmetry_space_group_name_H-M    'P 1'
loop_
_atom_site_label
_atom_site_type_symbol
_atom_site_fract_x
_atom_site_fract_y
_atom_site_fract_z
_atom_site_occupancy
C2   C   0.389644282700782   0.441535602454943   0.375000000000000   1.0000000
C2   C   0.444174080731041   0.388348161462082   0.375000000000000   1.0000000
C2   C   0.551891319754161   0.441535602454943   0.375000000000000   1.0000000
N2   N   0.111112146792580   0.055576265508399   0.124899606538741   1.0000000
N2   N   0.611133467491349   0.555620375073752   0.124410486420539   1.0000000
N2   N   0.444464118715819   0.055576265508399   0.124899606538741   1.0000000
N2   N   0.944438848298648   0.555551113315928   0.124914867492854   1.0000000
N2   N   0.777785786570674   0.055571573141349   0.124905492010884   1.0000000
N2   N   0.111112587793579   0.722225175587150   0.625085977779276   1.0000000
N2   N   0.444470694086835   0.722251848895570   0.625163269207951   1.0000000
N2   N   0.277780467469493   0.222248682908716   0.625090828241507   1.0000000
N2   N   0.777781154808736   0.722251848895570   0.625163269207951   1.0000000
N2   N   0.611143112238504   0.222210366210706   0.625125264655073   1.0000000
N2   N   0.944429145900340   0.222216023711376   0.625087924563767   1.0000000
N2   N   0.277789432663402   0.722221508486945   0.124923629406726   1.0000000
N2   N   0.111067253972209   0.222210366210706   0.124874735344927   1.0000000
N2   N   0.444468215439222   0.222248682908716   0.124909171758493   1.0000000
N2   N   0.611136283888581   0.722272567777156   0.124840634884995   1.0000000
N2   N   0.944432075823543   0.722221508486945   0.124923629406726   1.0000000
N2   N   0.777786877811036   0.222216023711376   0.124912075436233   1.0000000
N2   N   0.111109880869068   0.888902578654745   0.625063992384151   1.0000000
N2   N   0.444452988901453   0.888905196883843   0.625079934199701   1.0000000
N2   N   0.277707946837832   0.388850107454326   0.625584084272777   1.0000000
N2   N   0.611142160616502   0.388850107454326   0.625584084272777   1.0000000
N2   N   0.777789080080315   0.888922617859492   0.625086059508511   1.0000000
N2   N   0.944448288361628   0.388896576723256   0.625083659008736   1.0000000
N2   N   0.111085775244282   0.388874532476351   0.124853054084281   1.0000000
N2   N   0.277792697785684   0.888902578654745   0.124936007615849   1.0000000
N2   N   0.611133537779184   0.888922617859492   0.124913940491489   1.0000000
N2   N   0.444435891645979   0.388871783291959   0.124316189965027   1.0000000
N2   N   0.944452207982390   0.888905196883843   0.124920065800300   1.0000000
N2   N   0.777788757232076   0.388874532476351   0.124853054084281   1.0000000
N2   N   0.277796097174133   0.555541695777516   0.625136621830453   1.0000000
N2   N   0.111112146792580   0.055576265508399   0.625100393461258   1.0000000
N2   N   0.611133467491349   0.555620375073752   0.625589513579461   1.0000000
N2   N   0.444464118715819   0.055576265508399   0.625100393461258   1.0000000
N2   N   0.944438848298648   0.555551113315928   0.625085132507146   1.0000000
N2   N   0.111112265017279   0.555551113315928   0.124914867492854   1.0000000
N2   N   0.777785786570674   0.055571573141349   0.625094507989116   1.0000000
N2   N   0.277799907923578   0.055599815847157   0.124932898416903   1.0000000
N2   N   0.444486907582403   0.555620375073752   0.124410486420539   1.0000000
N2   N   0.777745598603383   0.555541695777516   0.124863378169547   1.0000000
N2   N   0.611129827313971   0.055571407190082   0.124930683174199   1.0000000
N2   N   0.444486907582403   0.555620375073752   0.625589513579461   1.0000000
N2   N   0.944441579876110   0.055571407190082   0.124930683174199   1.0000000
N2   N   0.277789432663402   0.722221508486945   0.625076370593274   1.0000000
N2   N   0.111067253972209   0.222210366210706   0.625125264655073   1.0000000
N2   N   0.444468215439222   0.222248682908716   0.625090828241507   1.0000000
N2   N   0.611136283888581   0.722272567777156   0.625159365115005   1.0000000
N2   N   0.944432075823543   0.722221508486945   0.625076370593274   1.0000000
N2   N   0.777786877811036   0.222216023711376   0.625087924563767   1.0000000
N2   N   0.111112587793579   0.722225175587150   0.124914022220725   1.0000000
N2   N   0.444470694086835   0.722251848895570   0.124836730792050   1.0000000
N2   N   0.277780467469493   0.222248682908716   0.124909171758493   1.0000000
N2   N   0.777781154808736   0.722251848895570   0.124836730792050   1.0000000
N2   N   0.611143112238504   0.222210366210706   0.124874735344927   1.0000000
N2   N   0.944429145900340   0.222216023711376   0.124912075436233   1.0000000
N2   N   0.111085775244282   0.388874532476351   0.625146945915719   1.0000000
N2   N   0.277792697785684   0.888902578654745   0.625063992384151   1.0000000
N2   N   0.611133537779184   0.888922617859492   0.625086059508511   1.0000000
N2   N   0.444435891645979   0.388871783291959   0.625683810034973   1.0000000
N2   N   0.944452207982390   0.888905196883843   0.625079934199701   1.0000000
N2   N   0.111109880869068   0.888902578654745   0.124936007615849   1.0000000
N2   N   0.777788757232076   0.388874532476351   0.625146945915719   1.0000000
N2   N   0.444452988901453   0.888905196883843   0.124920065800300   1.0000000
N2   N   0.277707946837832   0.388850107454326   0.124415915727223   1.0000000
N2   N   0.277796097174133   0.555541695777516   0.124863378169547   1.0000000
N2   N   0.611142160616502   0.388850107454326   0.124415915727223   1.0000000
N2   N   0.777789080080315   0.888922617859492   0.124913940491489   1.0000000
N2   N   0.944448288361628   0.388896576723256   0.124916340991264   1.0000000
N2   N   0.111112265017279   0.555551113315928   0.625085132507146   1.0000000
N2   N   0.277799907923578   0.055599815847157   0.625067101583097   1.0000000
N2   N   0.777745598603383   0.555541695777516   0.625136621830453   1.0000000
N2   N   0.611129827313971   0.055571407190082   0.625069316825801   1.0000000
N2   N   0.944441579876110   0.055571407190082   0.625069316825801   1.0000000
N2   N   0.054770607657662   0.110187529906190   0.375000000000000   1.0000000
N2   N   0.557508830151138   0.615017660302276   0.375000000000000   1.0000000
N2   N   0.388772143422963   0.111358827161291   0.375000000000000   1.0000000
N2   N   0.889093439712372   0.611232851292852   0.375000000000000   1.0000000
N2   N   0.722236364461521   0.110983493303970   0.375000000000000   1.0000000
N2   N   0.055541561419475   0.777768989571249   0.875000000000000   1.0000000
N2   N   0.388866054788268   0.777765197332592   0.875000000000000   1.0000000
N2   N   0.222212128204867   0.277757594912824   0.875000000000000   1.0000000
N2   N   0.722209440930623   0.777763986683222   0.875000000000000   1.0000000
N2   N   0.555545466707958   0.277757594912824   0.875000000000000   1.0000000
N2   N   0.888886327236737   0.277772654473481   0.875000000000000   1.0000000
N2   N   0.222163114745078   0.777904982364407   0.375000000000000   1.0000000
N2   N   0.054847910303875   0.277396667895114   0.375000000000000   1.0000000
N2   N   0.389553340013533   0.279106680027074   0.375000000000000   1.0000000
N2   N   0.555741842076271   0.779046664947084   0.375000000000000   1.0000000
N2   N   0.889566678586470   0.778281740331256   0.375000000000000   1.0000000
N2   N   0.722548757591239   0.277396667895114   0.375000000000000   1.0000000
N2   N   0.055543049494805   0.944413169447969   0.875000000000000   1.0000000
N2   N   0.388870119953164   0.944413169447969   0.875000000000000   1.0000000
N2   N   0.222238021716281   0.444441556881058   0.875000000000000   1.0000000
N2   N   0.555567119275536   0.444442015042638   0.875000000000000   1.0000000
N2   N   0.722204997912559   0.944409995825119   0.875000000000000   1.0000000
N2   N   0.888898429239185   0.444443278943989   0.875000000000000   1.0000000
N2   N   0.055218410903725   0.444541279582366   0.375000000000000   1.0000000
N2   N   0.222261681927650   0.944523363855300   0.375000000000000   1.0000000
N2   N   0.555439443083805   0.944562877612303   0.375000000000000   1.0000000
N2   N   0.889123434528497   0.944562877612303   0.375000000000000   1.0000000
N2   N   0.723257181486979   0.444058029158987   0.375000000000000   1.0000000
N2   N   0.222212098303664   0.611096091820022   0.875000000000000   1.0000000
N2   N   0.055540286812122   0.111096951354268   0.875000000000000   1.0000000
N2   N   0.555549483362624   0.611098966725247   0.875000000000000   1.0000000
N2   N   0.388872373704492   0.111103912103076   0.875000000000000   1.0000000
N2   N   0.888883993516352   0.611096091820022   0.875000000000000   1.0000000
N2   N   0.055654560930031   0.611309121860062   0.375000000000000   1.0000000
N2   N   0.722203694054512   0.111104214595015   0.875000000000000   1.0000000
N2   N   0.222586683738321   0.111358827161291   0.375000000000000   1.0000000
N2   N   0.389047147508327   0.612156992565186   0.375000000000000   1.0000000
N2   N   0.723109845056852   0.612156992565186   0.375000000000000   1.0000000
N2   N   0.555416922248528   0.110187529906190   0.375000000000000   1.0000000
N2   N   0.388871971879478   0.611078246802414   0.875000000000000   1.0000000
N2   N   0.888747128842442   0.110983493303970   0.375000000000000   1.0000000
N2   N   0.222227428151775   0.777768989571249   0.875000000000000   1.0000000
N2   N   0.055547321253099   0.277758219498090   0.875000000000000   1.0000000
N2   N   0.388875897178596   0.277751794357199   0.875000000000000   1.0000000
N2   N   0.555554545752600   0.777763986683222   0.875000000000000   1.0000000
N2   N   0.888899142544317   0.777765197332592   0.875000000000000   1.0000000
N2   N   0.722210898244991   0.277758219498090   0.875000000000000   1.0000000
N2   N   0.055741867619329   0.777904982364407   0.375000000000000   1.0000000
N2   N   0.388715061744779   0.778281740331256   0.375000000000000   1.0000000
N2   N   0.219554451405988   0.275396997953452   0.375000000000000   1.0000000
N2   N   0.723304822870814   0.779046664947084   0.375000000000000   1.0000000
N2   N   0.555842546547464   0.275396997953452   0.375000000000000   1.0000000
N2   N   0.888859114450773   0.277718228901553   0.375000000000000   1.0000000
N2   N   0.055544849704805   0.444443278943989   0.875000000000000   1.0000000
N2   N   0.222215860861026   0.944431721722051   0.875000000000000   1.0000000
N2   N   0.555539313450457   0.944426015907589   0.875000000000000   1.0000000
N2   N   0.388874895767102   0.444442015042638   0.875000000000000   1.0000000
N2   N   0.888886702457132   0.944426015907589   0.875000000000000   1.0000000
N2   N   0.055908579446341   0.944622883531800   0.375000000000000   1.0000000
N2   N   0.722203535164777   0.444441556881058   0.875000000000000   1.0000000
N2   N   0.388714304085458   0.944622883531800   0.375000000000000   1.0000000
N2   N   0.220800847672008   0.444058029158987   0.375000000000000   1.0000000
N2   N   0.222139411580473   0.611232851292852   0.375000000000000   1.0000000
N2   N   0.722392178616098   0.944784357232196   0.375000000000000   1.0000000
N2   N   0.889322868678641   0.444541279582366   0.375000000000000   1.0000000
N2   N   0.055540061832035   0.611080123664070   0.875000000000000   1.0000000
N2   N   0.222231538398577   0.111103912103076   0.875000000000000   1.0000000
N2   N   0.722206274922928   0.611078246802414   0.875000000000000   1.0000000
N2   N   0.555556664542146   0.111096951354268   0.875000000000000   1.0000000
N2   N   0.888900520540496   0.111104214595015   0.875000000000000   1.0000000
B2   B   0.111456709485336   0.055785297922103   0.375000000000000   1.0000000
B2   B   0.610377933021199   0.556723618258846   0.375000000000000   1.0000000
B2   B   0.444328588436768   0.055785297922103   0.375000000000000   1.0000000
B2   B   0.944469069262493   0.555659850486337   0.375000000000000   1.0000000
B2   B   0.777785629826742   0.055571259653485   0.375000000000000   1.0000000
B2   B   0.111094158348379   0.722188316696750   0.875000000000000   1.0000000
B2   B   0.444421620899329   0.722144811152648   0.875000000000000   1.0000000
B2   B   0.277852139597020   0.222209808311839   0.875000000000000   1.0000000
B2   B   0.777723190253319   0.722144811152648   0.875000000000000   1.0000000
B2   B   0.611132144093652   0.222184899892332   0.875000000000000   1.0000000
B2   B   0.944509793534972   0.222183114884579   0.875000000000000   1.0000000
B2   B   0.277707804484749   0.722201481413377   0.375000000000000   1.0000000
B2   B   0.109857129110898   0.221105469023442   0.375000000000000   1.0000000
B2   B   0.445295895664906   0.223075188733051   0.375000000000000   1.0000000
B2   B   0.612041059152034   0.724082118304061   0.375000000000000   1.0000000
B2   B   0.944493676928628   0.722201481413377   0.375000000000000   1.0000000
B2   B   0.777815521927530   0.222142546815004   0.375000000000000   1.0000000
B2   B   0.111015061881791   0.888833173383660   0.875000000000000   1.0000000
B2   B   0.444322889382558   0.888801953647971   0.875000000000000   1.0000000
B2   B   0.277869297654653   0.388975300866013   0.875000000000000   1.0000000
B2   B   0.611106003211367   0.388975300866013   0.875000000000000   1.0000000
B2   B   0.777661439413831   0.888785951593758   0.875000000000000   1.0000000
B2   B   0.944490864988268   0.388981729976537   0.875000000000000   1.0000000
B2   B   0.110863747237175   0.388984273177930   0.375000000000000   1.0000000
B2   B   0.277725219365401   0.888914619246882   0.375000000000000   1.0000000
B2   B   0.611148890347507   0.889234411947215   0.375000000000000   1.0000000
B2   B   0.944784413291783   0.889038290677868   0.375000000000000   1.0000000
B2   B   0.778120525940762   0.388984273177930   0.375000000000000   1.0000000
B2   B   0.277852736754420   0.555469613361502   0.875000000000000   1.0000000
B2   B   0.111120880620471   0.055549155946442   0.875000000000000   1.0000000
B2   B   0.611105062837114   0.555460568597230   0.875000000000000   1.0000000
B2   B   0.444428275325971   0.055549155946442   0.875000000000000   1.0000000
B2   B   0.944460856745264   0.555492742232264   0.875000000000000   1.0000000
B2   B   0.111190781223843   0.555659850486337   0.375000000000000   1.0000000
B2   B   0.777762437404425   0.055524874808850   0.875000000000000   1.0000000
B2   B   0.277908294622036   0.055816589244073   0.375000000000000   1.0000000
B2   B   0.446345685237647   0.556723618258846   0.375000000000000   1.0000000
B2   B   0.777139559587655   0.555257761666926   0.375000000000000   1.0000000
B2   B   0.611106250251039   0.055291265843259   0.375000000000000   1.0000000
B2   B   0.444355505760116   0.555460568597230   0.875000000000000   1.0000000
B2   B   0.944185015592220   0.055291265843259   0.375000000000000   1.0000000
B2   B   0.277810011979161   0.722257675006685   0.875000000000000   1.0000000
B2   B   0.111052755798687   0.222184899892332   0.875000000000000   1.0000000
B2   B   0.444357668714820   0.222209808311839   0.875000000000000   1.0000000
B2   B   0.611113012178323   0.722226024356640   0.875000000000000   1.0000000
B2   B   0.944447663027524   0.722257675006685   0.875000000000000   1.0000000
B2   B   0.777673321349607   0.222183114884579   0.875000000000000   1.0000000
B2   B   0.111139220734038   0.722278441468070   0.375000000000000   1.0000000
B2   B   0.444228959906317   0.722330762834392   0.375000000000000   1.0000000
B2   B   0.277779293068146   0.223075188733051   0.375000000000000   1.0000000
B2   B   0.778101802928075   0.722330762834392   0.375000000000000   1.0000000
B2   B   0.611248339912550   0.221105469023442   0.375000000000000   1.0000000
B2   B   0.944327024887474   0.222142546815004   0.375000000000000   1.0000000
B2   B   0.111146817574400   0.388881158320373   0.875000000000000   1.0000000
B2   B   0.277818111501875   0.888833173383660   0.875000000000000   1.0000000
B2   B   0.611124512179933   0.888785951593758   0.875000000000000   1.0000000
B2   B   0.444451456067985   0.388902912135970   0.875000000000000   1.0000000
B2   B   0.944479064265413   0.888801953647971   0.875000000000000   1.0000000
B2   B   0.111189399881488   0.888914619246882   0.375000000000000   1.0000000
B2   B   0.777734340745981   0.388881158320373   0.875000000000000   1.0000000
B2   B   0.444253877386085   0.889038290677868   0.375000000000000   1.0000000
B2   B   0.275910531830911   0.387014562947557   0.375000000000000   1.0000000
B2   B   0.278118202079271   0.555257761666926   0.375000000000000   1.0000000
B2   B   0.611104031116654   0.387014562947557   0.375000000000000   1.0000000
B2   B   0.778085521599715   0.889234411947215   0.375000000000000   1.0000000
B2   B   0.944498708162414   0.388997416324829   0.375000000000000   1.0000000
B2   B   0.111031885487000   0.555492742232264   0.875000000000000   1.0000000
B2   B   0.277833963922326   0.055667927844651   0.875000000000000   1.0000000
B2   B   0.777616876607082   0.555469613361502   0.875000000000000   1.0000000
B2   B   0.611126917606827   0.055620527721902   0.875000000000000   1.0000000
B2   B   0.944493610115075   0.055620527721902   0.875000000000000   1.0000000
B2   B   0.055568917772514   0.111230572395356   0.125033597524104   1.0000000
B2   B   0.555478224827379   0.610956449654758   0.125125791320215   1.0000000
B2   B   0.388951251814862   0.111333654045573   0.125075206334437   1.0000000
B2   B   0.888723241013786   0.611031088023961   0.125093352994215   1.0000000
B2   B   0.722204056190442   0.111169698824578   0.125024163753755   1.0000000
B2   B   0.055476475861093   0.777788841507955   0.624976300483064   1.0000000
B2   B   0.388919098280896   0.777750991089047   0.624958291698638   1.0000000
B2   B   0.222352877316581   0.277968672158053   0.624922804047194   1.0000000
B2   B   0.722104020647951   0.777725667607205   0.624918941320357   1.0000000
B2   B   0.555615794841472   0.277968672158053   0.624922804047194   1.0000000
B2   B   0.888896550788261   0.277793101576529   0.624968496607290   1.0000000
B2   B   0.222312365646862   0.777788841507955   0.125023699516936   1.0000000
B2   B   0.055583680724166   0.277759345681754   0.125046789221397   1.0000000
B2   B   0.389020078308372   0.278040156616751   0.125134764458566   1.0000000
B2   B   0.555621646959254   0.777725667607205   0.125081058679643   1.0000000
B2   B   0.888831892808144   0.777750991089047   0.125041708301362   1.0000000
B2   B   0.722175664957589   0.277759345681754   0.125046789221397   1.0000000
B2   B   0.055528713758229   0.944438765330146   0.624994522637343   1.0000000
B2   B   0.388910051571917   0.944438765330146   0.624994522637343   1.0000000
B2   B   0.222417199619197   0.444418757635941   0.624870540118768   1.0000000
B2   B   0.555511547787516   0.444465337490963   0.623939787691172   1.0000000
B2   B   0.722185900739118   0.944371801478235   0.624968596046711   1.0000000
B2   B   0.888879644733966   0.444441732510764   0.624954812503234   1.0000000
B2   B   0.055562087776798   0.444441732510764   0.125045187496766   1.0000000
B2   B   0.222266070096826   0.944532140193651   0.125024243016321   1.0000000
B2   B   0.555587624171897   0.944453360200843   0.125025662136645   1.0000000
B2   B   0.388953789703447   0.444465337490963   0.126060212308828   1.0000000
B2   B   0.888865736028946   0.944453360200843   0.125025662136645   1.0000000
B2   B   0.722001558016744   0.444418757635941   0.125129459881232   1.0000000
B2   B   0.222307847010168   0.611031088023961   0.624906647005786   1.0000000
B2   B   0.055568917772514   0.111230572395356   0.624966402475896   1.0000000
B2   B   0.555478224827379   0.610956449654758   0.624874208679785   1.0000000
B2   B   0.388951251814862   0.111333654045573   0.624924793665563   1.0000000
B2   B   0.888723241013786   0.611031088023961   0.624906647005786   1.0000000
B2   B   0.055504400425958   0.611008800851917   0.125031419327680   1.0000000
B2   B   0.722204056190442   0.111169698824578   0.624975836246245   1.0000000
B2   B   0.222382402230704   0.111333654045573   0.125075206334437   1.0000000
B2   B   0.388974599609433   0.610923254979472   0.125156503067213   1.0000000
B2   B   0.721948655370031   0.610923254979472   0.125156503067213   1.0000000
B2   B   0.555661654622842   0.111230572395356   0.125033597524104   1.0000000
B2   B   0.388974599609433   0.610923254979472   0.624843496932787   1.0000000
B2   B   0.888965642634130   0.111169698824578   0.125024163753755   1.0000000
B2   B   0.222312365646862   0.777788841507955   0.624976300483064   1.0000000
B2   B   0.055583680724166   0.277759345681754   0.624953210778603   1.0000000
B2   B   0.389020078308372   0.278040156616751   0.624865235541434   1.0000000
B2   B   0.555621646959254   0.777725667607205   0.624918941320357   1.0000000
B2   B   0.888831892808144   0.777750991089047   0.624958291698638   1.0000000
B2   B   0.722175664957589   0.277759345681754   0.624953210778603   1.0000000
B2   B   0.055476475861093   0.777788841507955   0.125023699516936   1.0000000
B2   B   0.388919098280896   0.777750991089047   0.125041708301362   1.0000000
B2   B   0.222352877316581   0.277968672158053   0.125077195952806   1.0000000
B2   B   0.722104020647951   0.777725667607205   0.125081058679643   1.0000000
B2   B   0.555615794841472   0.277968672158053   0.125077195952806   1.0000000
B2   B   0.888896550788261   0.277793101576529   0.125031503392710   1.0000000
B2   B   0.055562087776798   0.444441732510764   0.624954812503234   1.0000000
B2   B   0.222266070096826   0.944532140193651   0.624975756983679   1.0000000
B2   B   0.555587624171897   0.944453360200843   0.624974337863354   1.0000000
B2   B   0.388953789703447   0.444465337490963   0.623939787691172   1.0000000
B2   B   0.888865736028946   0.944453360200843   0.624974337863354   1.0000000
B2   B   0.055528713758229   0.944438765330146   0.125005477362657   1.0000000
B2   B   0.722001558016744   0.444418757635941   0.624870540118768   1.0000000
B2   B   0.388910051571917   0.944438765330146   0.125005477362657   1.0000000
B2   B   0.222417199619197   0.444418757635941   0.125129459881232   1.0000000
B2   B   0.222307847010168   0.611031088023961   0.125093352994215   1.0000000
B2   B   0.555511547787516   0.444465337490963   0.126060212308828   1.0000000
B2   B   0.722185900739118   0.944371801478235   0.125031403953289   1.0000000
B2   B   0.888879644733966   0.444441732510764   0.125045187496766   1.0000000
B2   B   0.055504400425958   0.611008800851917   0.624968580672321   1.0000000
B2   B   0.222382402230704   0.111333654045573   0.624924793665563   1.0000000
B2   B   0.721948655370031   0.610923254979472   0.624843496932787   1.0000000
B2   B   0.555661654622842   0.111230572395356   0.624966402475896   1.0000000
B2   B   0.888965642634130   0.111169698824578   0.624975836246245   1.0000000


