data_1
_audit_creation_method   'vasp2cif'
_cell_length_a    14.93631414619966
_cell_length_b    14.936314146199727
_cell_length_c    13.341276283792837
_cell_angle_alpha    90.0
_cell_angle_beta    90.0
_cell_angle_gamma    119.99999999999984

_symmetry_space_group_name_H-M    'P 1'
loop_
_atom_site_label
_atom_site_type_symbol
_atom_site_fract_x
_atom_site_fract_y
_atom_site_fract_z
_atom_site_occupancy
O2   O   0.430244147541842   0.381788740437586   0.375000000000000   1.0000000
N2   N   0.111078717292100   0.055551655936934   0.125095083542494   1.0000000
N2   N   0.611140532553660   0.555676460338085   0.123843154074488   1.0000000
N2   N   0.444409798783346   0.055566677310166   0.125071059033273   1.0000000
N2   N   0.944415197621681   0.555538390137076   0.125011165542466   1.0000000
N2   N   0.777756305963795   0.055544819648568   0.125024156037719   1.0000000
N2   N   0.111074285050824   0.722203809192076   0.624987787381889   1.0000000
N2   N   0.444409798783346   0.722176454806516   0.624928940966726   1.0000000
N2   N   0.277762690544307   0.222237172892706   0.624479666381383   1.0000000
N2   N   0.777790428479870   0.722253549242596   0.625094370393010   1.0000000
N2   N   0.611118190315899   0.222218044863507   0.625059765448123   1.0000000
N2   N   0.944423857036834   0.222205586999058   0.624968284765221   1.0000000
N2   N   0.277738833739086   0.722191698083536   0.125040768657889   1.0000000
N2   N   0.111079372016865   0.222206352675100   0.125161546190877   1.0000000
N2   N   0.444402888107297   0.222238145791070   0.125238158828257   1.0000000
N2   N   0.611118190315899   0.722233478785713   0.124940234551877   1.0000000
N2   N   0.944415197621681   0.722210140817950   0.125011165542466   1.0000000
N2   N   0.777777133442921   0.222205915318285   0.125011689734877   1.0000000
N2   N   0.111073537957724   0.888878792965397   0.624957250564541   1.0000000
N2   N   0.444402614498426   0.888867973915873   0.624976004206660   1.0000000
N2   N   0.277762690544307   0.388858850984929   0.624479666381383   1.0000000
N2   N   0.611140532553660   0.388797405548903   0.626156845925512   1.0000000
N2   N   0.777777133442921   0.888904551457971   0.624988310265124   1.0000000
N2   N   0.944431309500706   0.388867398623760   0.624977249189254   1.0000000
N2   N   0.111078717292100   0.388860394688494   0.125095083542494   1.0000000
N2   N   0.277738833739086   0.888880468988878   0.125040768657889   1.0000000
N2   N   0.611077999477193   0.888866618144232   0.125067420320253   1.0000000
N2   N   0.444456215676553   0.388894774504940   0.126311147475661   1.0000000
N2   N   0.944431309500706   0.888897244210274   0.125022750810745   1.0000000
N2   N   0.777790428479870   0.388870212570603   0.124905629606990   1.0000000
N2   N   0.277737244200357   0.555510717321409   0.624814723907222   1.0000000
N2   N   0.111078717292100   0.055551655936934   0.624904916457506   1.0000000
N2   N   0.611140532553660   0.555676460338085   0.626156845925512   1.0000000
N2   N   0.444409798783346   0.055566677310166   0.624928940966726   1.0000000
N2   N   0.944415197621681   0.555538390137076   0.624988834457535   1.0000000
N2   N   0.111073537957724   0.555528078325647   0.125042749435459   1.0000000
N2   N   0.777756305963795   0.055544819648568   0.624975843962281   1.0000000
N2   N   0.277737244200357   0.055559860212284   0.125185276092778   1.0000000
N2   N   0.444402888107297   0.555498075649562   0.125238158828257   1.0000000
N2   N   0.777751631408858   0.555542482371096   0.124871411980842   1.0000000
N2   N   0.611077999477193   0.055544714666290   0.125067420320253   1.0000000
N2   N   0.444402888107297   0.555498075649562   0.624761841171743   1.0000000
N2   N   0.944423857036834   0.055551603371113   0.125031715234779   1.0000000
N2   N   0.277738833739086   0.722191698083536   0.624959231342112   1.0000000
N2   N   0.111079372016865   0.222206352675100   0.624838453809122   1.0000000
N2   N   0.444402888107297   0.222238145791070   0.624761841171743   1.0000000
N2   N   0.611118190315899   0.722233478785713   0.625059765448123   1.0000000
N2   N   0.944415197621681   0.722210140817950   0.624988834457535   1.0000000
N2   N   0.777777133442921   0.222205915318285   0.624988310265124   1.0000000
N2   N   0.111074285050824   0.722203809192076   0.125012212618119   1.0000000
N2   N   0.444409798783346   0.722176454806516   0.125071059033273   1.0000000
N2   N   0.277762690544307   0.222237172892706   0.125520333618618   1.0000000
N2   N   0.777790428479870   0.722253549242596   0.124905629606990   1.0000000
N2   N   0.611118190315899   0.222218044863507   0.124940234551877   1.0000000
N2   N   0.944423857036834   0.222205586999058   0.125031715234779   1.0000000
N2   N   0.111078717292100   0.388860394688494   0.624904916457506   1.0000000
N2   N   0.277738833739086   0.888880468988878   0.624959231342112   1.0000000
N2   N   0.611077999477193   0.888866618144232   0.624932579679747   1.0000000
N2   N   0.444456215676553   0.388894774504940   0.623688852524340   1.0000000
N2   N   0.944431309500706   0.888897244210274   0.624977249189254   1.0000000
N2   N   0.111073537957724   0.888878792965397   0.125042749435459   1.0000000
N2   N   0.777790428479870   0.388870212570603   0.625094370393010   1.0000000
N2   N   0.444402614498426   0.888867973915873   0.125023995793340   1.0000000
N2   N   0.277762690544307   0.388858850984929   0.125520333618618   1.0000000
N2   N   0.277737244200357   0.555510717321409   0.125185276092778   1.0000000
N2   N   0.611140532553660   0.388797405548903   0.123843154074488   1.0000000
N2   N   0.777777133442921   0.888904551457971   0.125011689734877   1.0000000
N2   N   0.944431309500706   0.388867398623760   0.125022750810745   1.0000000
N2   N   0.111073537957724   0.555528078325647   0.624957250564541   1.0000000
N2   N   0.277737244200357   0.055559860212284   0.624814723907222   1.0000000
N2   N   0.777751631408858   0.555542482371096   0.625128588019158   1.0000000
N2   N   0.611077999477193   0.055544714666290   0.624932579679747   1.0000000
N2   N   0.944423857036834   0.055551603371113   0.624968284765221   1.0000000
N2   N   0.051453033454105   0.108548472888433   0.375000000000000   1.0000000
N2   N   0.556618360108396   0.597015006309913   0.375000000000000   1.0000000
N2   N   0.390648411395803   0.117967065217040   0.375000000000000   1.0000000
N2   N   0.896760445051812   0.615046889192581   0.375000000000000   1.0000000
N2   N   0.720543278305562   0.111681624596951   0.375000000000000   1.0000000
N2   N   0.055563489251662   0.777783754926789   0.875000000000000   1.0000000
N2   N   0.388890954841789   0.777784038926371   0.875000000000000   1.0000000
N2   N   0.222229292648835   0.277781312991089   0.875000000000000   1.0000000
N2   N   0.722218927877224   0.777779403897049   0.875000000000000   1.0000000
N2   N   0.555544653462589   0.277759755814260   0.875000000000000   1.0000000
N2   N   0.888890637970808   0.277777827658334   0.875000000000000   1.0000000
N2   N   0.226208720779569   0.779771027056453   0.375000000000000   1.0000000
N2   N   0.051453033454105   0.276237893899015   0.375000000000000   1.0000000
N2   N   0.380016473935228   0.278007737082256   0.375000000000000   1.0000000
N2   N   0.556039618222498   0.772103165451552   0.375000000000000   1.0000000
N2   N   0.891208106236716   0.777948994763131   0.375000000000000   1.0000000
N2   N   0.721458624520759   0.281092322992294   0.375000000000000   1.0000000
N2   N   0.055561305957573   0.944449304019351   0.875000000000000   1.0000000
N2   N   0.388890954841789   0.944440249248753   0.875000000000000   1.0000000
N2   N   0.222229814242383   0.444448613668485   0.875000000000000   1.0000000
N2   N   0.555547524312825   0.444440428823073   0.875000000000000   1.0000000
N2   N   0.722216823029931   0.944443680527656   0.875000000000000   1.0000000
N2   N   0.888894014004087   0.444444853797705   0.875000000000000   1.0000000
N2   N   0.055602270119892   0.444666830438064   0.375000000000000   1.0000000
N2   N   0.225208960012871   0.947540082112035   0.375000000000000   1.0000000
N2   N   0.556010916537007   0.944672124935171   0.375000000000000   1.0000000
N2   N   0.380016473935228   0.435342070186315   0.375000000000000   1.0000000
N2   N   0.886681136453100   0.942046919878040   0.375000000000000   1.0000000
N2   N   0.728153009879511   0.450526134627998   0.375000000000000   1.0000000
N2   N   0.222227886899267   0.611115389759253   0.875000000000000   1.0000000
N2   N   0.055559054049533   0.111112743912547   0.875000000000000   1.0000000
N2   N   0.555544653462589   0.611118230981663   0.875000000000000   1.0000000
N2   N   0.388890120522085   0.111102769360402   0.875000000000000   1.0000000
N2   N   0.888896504123070   0.611114918728207   0.875000000000000   1.0000000
N2   N   0.060300130172332   0.613073615293643   0.375000000000000   1.0000000
N2   N   0.722216823029931   0.111106475835611   0.875000000000000   1.0000000
N2   N   0.219820493045684   0.110589779875568   0.375000000000000   1.0000000
N2   N   0.390648411395803   0.606014679512107   0.375000000000000   1.0000000
N2   N   0.728153009879511   0.610960208584848   0.375000000000000   1.0000000
N2   N   0.556039618222498   0.117269786104276   0.375000000000000   1.0000000
N2   N   0.388890120522085   0.611120684495034   0.875000000000000   1.0000000
N2   N   0.885709855073719   0.109521594203531   0.375000000000000   1.0000000
N2   N   0.222228071112379   0.777780702222855   0.875000000000000   1.0000000
N2   N   0.055559054049533   0.277779643470322   0.875000000000000   1.0000000
N2   N   0.388895271222024   0.277779639898066   0.875000000000000   1.0000000
N2   N   0.555549375555440   0.777782581872154   0.875000000000000   1.0000000
N2   N   0.888894014004087   0.777782493539718   0.875000000000000   1.0000000
N2   N   0.722218927877224   0.277772857313510   0.875000000000000   1.0000000
N2   N   0.060300130172332   0.780559848212023   0.375000000000000   1.0000000
N2   N   0.391402089259243   0.777069290747927   0.375000000000000   1.0000000
N2   N   0.214714291059642   0.274023812196485   0.375000000000000   1.0000000
N2   N   0.721458624520759   0.773699634861800   0.375000000000000   1.0000000
N2   N   0.556618360108396   0.292936687131825   0.375000000000000   1.0000000
N2   N   0.886681136453100   0.277967549908403   0.375000000000000   1.0000000
N2   N   0.055561305957573   0.444445335271550   0.875000000000000   1.0000000
N2   N   0.222227886899267   0.944445830473342   0.875000000000000   1.0000000
N2   N   0.555551298627502   0.944442315980419   0.875000000000000   1.0000000
N2   N   0.388895271222024   0.444448964657293   0.875000000000000   1.0000000
N2   N   0.888890637970808   0.944446143645810   0.875000000000000   1.0000000
N2   N   0.055602270119892   0.944268773015157   0.375000000000000   1.0000000
N2   N   0.722223261803421   0.444443835602876   0.875000000000000   1.0000000
N2   N   0.391402089259243   0.947666131844652   0.375000000000000   1.0000000
N2   N   0.219820493045684   0.442564046503451   0.375000000000000   1.0000000
N2   N   0.225208960012871   0.611002211234165   0.375000000000000   1.0000000
N2   N   0.720543278305562   0.942194987041946   0.375000000000000   1.0000000
N2   N   0.891208106236716   0.446592444806928   0.375000000000000   1.0000000
N2   N   0.055563489251662   0.611113067658208   0.875000000000000   1.0000000
N2   N   0.222229814242383   0.111114533907235   0.875000000000000   1.0000000
N2   N   0.722223261803421   0.611112759533874   0.875000000000000   1.0000000
N2   N   0.555549375555440   0.111100127016615   0.875000000000000   1.0000000
N2   N   0.888888817072836   0.111111075203089   0.875000000000000   1.0000000
B2   B   0.108277593421927   0.054096723205468   0.375000000000000   1.0000000
B2   B   0.617485233237846   0.535348023643290   0.375000000000000   1.0000000
B2   B   0.445762178893189   0.060133908467604   0.375000000000000   1.0000000
B2   B   0.949269545579676   0.557712660568363   0.375000000000000   1.0000000
B2   B   0.774628820878221   0.053981077105778   0.375000000000000   1.0000000
B2   B   0.111092281359972   0.722212807346649   0.875000000000000   1.0000000
B2   B   0.444471062100315   0.722246203973108   0.875000000000000   1.0000000
B2   B   0.277822271554354   0.222230766478652   0.875000000000000   1.0000000
B2   B   0.777750796917595   0.722174816290850   0.875000000000000   1.0000000
B2   B   0.611121722200692   0.222245998044490   0.875000000000000   1.0000000
B2   B   0.944405001591024   0.222216780386221   0.875000000000000   1.0000000
B2   B   0.280642272854618   0.722716646413671   0.375000000000000   1.0000000
B2   B   0.103629181099880   0.218481257216608   0.375000000000000   1.0000000
B2   B   0.448158874272355   0.230516477778274   0.375000000000000   1.0000000
B2   B   0.610439702948433   0.712164336261264   0.375000000000000   1.0000000
B2   B   0.949269545579676   0.724890218344649   0.375000000000000   1.0000000
B2   B   0.775211406801158   0.223480248606773   0.375000000000000   1.0000000
B2   B   0.111095194584788   0.888860204047382   0.875000000000000   1.0000000
B2   B   0.444456696738592   0.888895015035960   0.875000000000000   1.0000000
B2   B   0.277822271554354   0.388924838409031   0.875000000000000   1.0000000
B2   B   0.611137263471590   0.388918871329057   0.875000000000000   1.0000000
B2   B   0.777750172764180   0.888849435658058   0.875000000000000   1.0000000
B2   B   0.944408104496387   0.388899897520308   0.875000000000000   1.0000000
B2   B   0.108277593421927   0.387514203549787   0.375000000000000   1.0000000
B2   B   0.280642272854618   0.891258959774269   0.375000000000000   1.0000000
B2   B   0.609936629481775   0.885500125992531   0.375000000000000   1.0000000
B2   B   0.944111389035420   0.887932590284844   0.375000000000000   1.0000000
B2   B   0.779390402762689   0.392752883904434   0.375000000000000   1.0000000
B2   B   0.277802982146315   0.555592725585617   0.875000000000000   1.0000000
B2   B   0.111097105713605   0.055526013097123   0.875000000000000   1.0000000
B2   B   0.611137263471590   0.555551725475863   0.875000000000000   1.0000000
B2   B   0.444471062100315   0.055558191460543   0.875000000000000   1.0000000
B2   B   0.944408536066808   0.555552813531929   0.875000000000000   1.0000000
B2   B   0.113771297579186   0.556137127140673   0.375000000000000   1.0000000
B2   B   0.777747755795502   0.055540544564419   0.875000000000000   1.0000000
B2   B   0.279197079728103   0.058424536247467   0.375000000000000   1.0000000
B2   B   0.448158874272355   0.550975729827416   0.375000000000000   1.0000000
B2   B   0.786755152548496   0.560044242940915   0.375000000000000   1.0000000
B2   B   0.609936629481775   0.057769836822580   0.375000000000000   1.0000000
B2   B   0.444512247718229   0.555601859372479   0.875000000000000   1.0000000
B2   B   0.940180821770233   0.052698885103601   0.375000000000000   1.0000000
B2   B   0.277787919962596   0.722238575015107   0.875000000000000   1.0000000
B2   B   0.111094584736463   0.222213959034892   0.875000000000000   1.0000000
B2   B   0.444512247718229   0.222243721679086   0.875000000000000   1.0000000
B2   B   0.611121722200692   0.722209057489531   0.875000000000000   1.0000000
B2   B   0.944408536066808   0.722189055868215   0.875000000000000   1.0000000
B2   B   0.777750172764180   0.222234070439451   0.875000000000000   1.0000000
B2   B   0.115160470853840   0.724246902093585   0.375000000000000   1.0000000
B2   B   0.445762178893189   0.718961603758921   0.375000000000000   1.0000000
B2   B   0.268824336176227   0.219215655880679   0.375000000000000   1.0000000
B2   B   0.779390402762689   0.719970852191582   0.375000000000000   1.0000000
B2   B   0.610439702948433   0.231608700020490   0.375000000000000   1.0000000
B2   B   0.940180821770233   0.220815269999961   0.375000000000000   1.0000000
B2   B   0.111097105713605   0.388904425949811   0.875000000000000   1.0000000
B2   B   0.277787919962596   0.888882678280818   0.875000000000000   1.0000000
B2   B   0.611108625598164   0.888881818413176   0.875000000000000   1.0000000
B2   B   0.444548322697935   0.388940828015631   0.875000000000000   1.0000000
B2   B   0.944408104496387   0.888841540309406   0.875000000000000   1.0000000
B2   B   0.113771297579186   0.890967503771841   0.375000000000000   1.0000000
B2   B   0.777750796917595   0.388909313960074   0.875000000000000   1.0000000
B2   B   0.445625589399055   0.889479461366191   0.375000000000000   1.0000000
B2   B   0.268824336176227   0.382942013628877   0.375000000000000   1.0000000
B2   B   0.279197079728103   0.554105876813972   0.375000000000000   1.0000000
B2   B   0.617485233237846   0.415470542927885   0.375000000000000   1.0000000
B2   B   0.775211406801158   0.885064491527713   0.375000000000000   1.0000000
B2   B   0.944111389035420   0.389512132083905   0.375000000000000   1.0000000
B2   B   0.111095194584788   0.555568323870734   0.875000000000000   1.0000000
B2   B   0.277802982146315   0.055543589894033   0.875000000000000   1.0000000
B2   B   0.777750492364121   0.555541912848732   0.875000000000000   1.0000000
B2   B   0.611108625598164   0.055560140518316   0.875000000000000   1.0000000
B2   B   0.944405001591024   0.055521554538139   0.875000000000000   1.0000000
B2   B   0.055422598793298   0.111002186938352   0.124916594986501   1.0000000
B2   B   0.555800088773633   0.611079152810117   0.124889143426012   1.0000000
B2   B   0.388939396455747   0.111166086497714   0.124998468895285   1.0000000
B2   B   0.888684859525323   0.611009096429332   0.125181584908740   1.0000000
B2   B   0.722207475305364   0.111142829975878   0.125025370253198   1.0000000
B2   B   0.055393715840343   0.777666354840197   0.624970993915751   1.0000000
B2   B   0.388878361750730   0.777759308036639   0.625000833905216   1.0000000
B2   B   0.222139818640182   0.277736575986758   0.625132342941895   1.0000000
B2   B   0.722239876113492   0.777695164206450   0.624938742258751   1.0000000
B2   B   0.555800088773633   0.278054269296845   0.625110856573995   1.0000000
B2   B   0.888805232679348   0.277790414055777   0.624992836001059   1.0000000
B2   B   0.222127371570065   0.777730352451704   0.124986602419343   1.0000000
B2   B   0.055422598793298   0.277753745188281   0.124916594986501   1.0000000
B2   B   0.389091915831769   0.277922595770240   0.125126794499664   1.0000000
B2   B   0.555625094418399   0.777732609758837   0.125049667479258   1.0000000
B2   B   0.888761659148811   0.777657046730958   0.125107450817486   1.0000000
B2   B   0.722239876113492   0.277878045240378   0.125061257741249   1.0000000
B2   B   0.055423214090393   0.944314367479529   0.625017835697001   1.0000000
B2   B   0.388878361750730   0.944452387047427   0.625000833905216   1.0000000
B2   B   0.222144992228948   0.444468079862842   0.625052426912976   1.0000000
B2   B   0.555995573737563   0.444664453535449   0.623653432529472   1.0000000
B2   B   0.722207475305364   0.944397978662822   0.624974629746802   1.0000000
B2   B   0.888761659148810   0.444437945751189   0.624892549182515   1.0000000
B2   B   0.055423214090393   0.444442179944192   0.124982164302999   1.0000000
B2   B   0.222132185693547   0.944359210346358   0.124993311475473   1.0000000
B2   B   0.555562580713424   0.944447957023373   0.125030087028934   1.0000000
B2   B   0.389091915831769   0.444502653394872   0.125126794499664   1.0000000
B2   B   0.888805232679348   0.944348151956899   0.125007163998941   1.0000000
B2   B   0.722155904154005   0.444462915292079   0.125109252873002   1.0000000
B2   B   0.222132185693547   0.611106308680525   0.625006688524526   1.0000000
B2   B   0.055422598793298   0.111002186938352   0.625083405013499   1.0000000
B2   B   0.555800088773633   0.611079152810117   0.625110856573995   1.0000000
B2   B   0.388939396455747   0.111166086497714   0.625001531104715   1.0000000
B2   B   0.888684859525323   0.611009096429332   0.624818415091259   1.0000000
B2   B   0.055393715840343   0.611060694333480   0.125029006084249   1.0000000
B2   B   0.722207475305364   0.111142829975878   0.624974629746802   1.0000000
B2   B   0.222144992228948   0.111010245699441   0.124947573087024   1.0000000
B2   B   0.388939396455747   0.611106643291375   0.124998468895285   1.0000000
B2   B   0.722155904154005   0.611026322195262   0.125109252873002   1.0000000
B2   B   0.555625094418399   0.111225817992897   0.125049667479258   1.0000000
B2   B   0.388939396455747   0.611106643291375   0.625001531104715   1.0000000
B2   B   0.888804479311181   0.111068906322262   0.124967980860356   1.0000000
B2   B   0.222127371570065   0.777730352451704   0.625013397580657   1.0000000
B2   B   0.055422598793298   0.277753745188281   0.625083405013499   1.0000000
B2   B   0.389091915831769   0.277922595770240   0.624873205500336   1.0000000
B2   B   0.555625094418399   0.777732609758837   0.624950332520743   1.0000000
B2   B   0.888761659148811   0.777657046730958   0.624892549182515   1.0000000
B2   B   0.722239876113492   0.277878045240378   0.624938742258751   1.0000000
B2   B   0.055393715840343   0.777666354840197   0.125029006084249   1.0000000
B2   B   0.388878361750730   0.777759308036639   0.124999166094785   1.0000000
B2   B   0.222139818640182   0.277736575986758   0.124867657058105   1.0000000
B2   B   0.722239876113492   0.777695164206450   0.125061257741249   1.0000000
B2   B   0.555800088773633   0.278054269296845   0.124889143426012   1.0000000
B2   B   0.888805232679348   0.277790414055777   0.125007163998941   1.0000000
B2   B   0.055423214090393   0.444442179944192   0.625017835697001   1.0000000
B2   B   0.222132185693547   0.944359210346358   0.625006688524526   1.0000000
B2   B   0.555562580713424   0.944447957023373   0.624969912971066   1.0000000
B2   B   0.389091915831769   0.444502653394872   0.624873205500336   1.0000000
B2   B   0.888805232679348   0.944348151956899   0.624992836001059   1.0000000
B2   B   0.055423214090393   0.944314367479529   0.124982164302999   1.0000000
B2   B   0.722155904154005   0.444462915292079   0.624890747126998   1.0000000
B2   B   0.388878361750730   0.944452387047427   0.124999166094785   1.0000000
B2   B   0.222144992228948   0.444468079862842   0.124947573087024   1.0000000
B2   B   0.222132185693547   0.611106308680525   0.124993311475473   1.0000000
B2   B   0.555995573737563   0.444664453535449   0.126346567470529   1.0000000
B2   B   0.722207475305364   0.944397978662822   0.125025370253198   1.0000000
B2   B   0.888761659148811   0.444437945751189   0.125107450817486   1.0000000
B2   B   0.055393715840343   0.611060694333480   0.624970993915751   1.0000000
B2   B   0.222144992228948   0.111010245699441   0.625052426912976   1.0000000
B2   B   0.722155904154005   0.611026322195262   0.624890747126998   1.0000000
B2   B   0.555625094418399   0.111225817992897   0.624950332520743   1.0000000
B2   B   0.888804479311181   0.111068906322262   0.625032019139644   1.0000000


