data_1
_audit_creation_method   'vasp2cif'
_cell_length_a    14.93631414619966
_cell_length_b    14.936314146199727
_cell_length_c    13.341276283792837
_cell_angle_alpha    90.0
_cell_angle_beta    90.0
_cell_angle_gamma    119.99999999999984

_symmetry_space_group_name_H-M    'P 1'
loop_
_atom_site_label
_atom_site_type_symbol
_atom_site_fract_x
_atom_site_fract_y
_atom_site_fract_z
_atom_site_occupancy
As2   As   0.555555555555557   0.444444444444443   0.375000000000000   1.0000000
N2   N   0.111089452041199   0.055543196773200   0.125115514370295   1.0000000
N2   N   0.611157541553007   0.555648416439284   0.124562825017700   1.0000000
N2   N   0.444444980858434   0.055558994561473   0.125194571056016   1.0000000
N2   N   0.944441005438510   0.555555019141523   0.125194571056016   1.0000000
N2   N   0.777787059860362   0.055560196596823   0.125065792205142   1.0000000
N2   N   0.111110099225030   0.722221716279213   0.624589082109937   1.0000000
N2   N   0.444444980858434   0.722219319630289   0.624805428944021   1.0000000
N2   N   0.277725125351995   0.222181727565507   0.625383034001655   1.0000000
N2   N   0.777818272434478   0.722274874648056   0.625383034001655   1.0000000
N2   N   0.611123268880269   0.222181727565507   0.625383034001655   1.0000000
N2   N   0.944439803403193   0.222212940139707   0.624934207794849   1.0000000
N2   N   0.277778283720782   0.722221716279213   0.125410917890022   1.0000000
N2   N   0.111090370981808   0.222211852157563   0.124913718607849   1.0000000
N2   N   0.444462302534881   0.222257938403107   0.124836617118107   1.0000000
N2   N   0.611123268880269   0.722274874648056   0.124616965998346   1.0000000
N2   N   0.944441005438510   0.722219319630289   0.125194571056016   1.0000000
N2   N   0.777788147842427   0.222211852157563   0.124913718607849   1.0000000
N2   N   0.111110746333114   0.888889253666901   0.624552754794605   1.0000000
N2   N   0.444445174000399   0.888889253666901   0.624552754794605   1.0000000
N2   N   0.277725125351995   0.388876731119819   0.625383034001655   1.0000000
N2   N   0.611157541553007   0.388842458447026   0.625437174982213   1.0000000
N2   N   0.777788147842427   0.888909629018246   0.625086281392152   1.0000000
N2   N   0.944456803226813   0.388879588601315   0.624884485629731   1.0000000
N2   N   0.111089452041199   0.388879588601315   0.125115514370295   1.0000000
N2   N   0.277778283720782   0.888889900774893   0.125410917890022   1.0000000
N2   N   0.611120411398646   0.888910547958860   0.125115514370295   1.0000000
N2   N   0.444351583560779   0.388842458447026   0.124562825017700   1.0000000
N2   N   0.944456803226813   0.888910547958860   0.125115514370295   1.0000000
N2   N   0.777818272434478   0.388876731119819   0.124616965998346   1.0000000
N2   N   0.277780680369717   0.555555019141523   0.624805428944021   1.0000000
N2   N   0.111089452041199   0.055543196773200   0.624884485629731   1.0000000
N2   N   0.611157541553007   0.555648416439220   0.625437174982213   1.0000000
N2   N   0.444444980858434   0.055558994561473   0.624805428944021   1.0000000
N2   N   0.944441005438510   0.555555019141523   0.624805428944021   1.0000000
N2   N   0.111110746333114   0.555554825999577   0.125447245205370   1.0000000
N2   N   0.777787059860362   0.055560196596823   0.624934207794849   1.0000000
N2   N   0.277780680369717   0.055558994561473   0.125194571056016   1.0000000
N2   N   0.444462302534881   0.555537697465039   0.124836617118107   1.0000000
N2   N   0.777742061596910   0.555537697465039   0.124836617118107   1.0000000
N2   N   0.611120411398646   0.055543196773200   0.125115514370295   1.0000000
N2   N   0.444462302534881   0.555537697465039   0.625163382881840   1.0000000
N2   N   0.944439803403193   0.055560196596823   0.125065792205142   1.0000000
N2   N   0.277778283720782   0.722221716279213   0.624589082109937   1.0000000
N2   N   0.111090370981808   0.222211852157563   0.625086281392152   1.0000000
N2   N   0.444462302534881   0.222257938403107   0.625163382881840   1.0000000
N2   N   0.611123268880269   0.722274874648056   0.625383034001655   1.0000000
N2   N   0.944441005438510   0.722219319630289   0.624805428944021   1.0000000
N2   N   0.777788147842427   0.222211852157563   0.625086281392152   1.0000000
N2   N   0.111110099225030   0.722221716279213   0.125410917890022   1.0000000
N2   N   0.444444980858434   0.722219319630289   0.125194571056016   1.0000000
N2   N   0.277725125351995   0.222181727565507   0.124616965998346   1.0000000
N2   N   0.777818272434563   0.722274874648056   0.124616965998346   1.0000000
N2   N   0.611123268880269   0.222181727565507   0.124616965998346   1.0000000
N2   N   0.944439803403193   0.222212940139707   0.125065792205142   1.0000000
N2   N   0.111089452041199   0.388879588601315   0.624884485629731   1.0000000
N2   N   0.277778283720782   0.888889900774893   0.624589082109937   1.0000000
N2   N   0.611120411398646   0.888910547958860   0.624884485629731   1.0000000
N2   N   0.444351583560779   0.388842458447026   0.625437174982213   1.0000000
N2   N   0.944456803226813   0.888910547958860   0.624884485629731   1.0000000
N2   N   0.111110746333114   0.888889253666901   0.125447245205370   1.0000000
N2   N   0.777818272434478   0.388876731119819   0.625383034001655   1.0000000
N2   N   0.444445174000399   0.888889253666901   0.125447245205370   1.0000000
N2   N   0.277725125351995   0.388876731119819   0.124616965998346   1.0000000
N2   N   0.277780680369717   0.555555019141523   0.125194571056016   1.0000000
N2   N   0.611157541553007   0.388842458447026   0.124562825017700   1.0000000
N2   N   0.777788147842427   0.888909629018246   0.124913718607849   1.0000000
N2   N   0.944456803226813   0.388879588601315   0.125115514370295   1.0000000
N2   N   0.111110746333114   0.555554825999577   0.624552754794605   1.0000000
N2   N   0.277780680369717   0.055558994561473   0.624805428944021   1.0000000
N2   N   0.777742061596910   0.555537697465039   0.625163382881840   1.0000000
N2   N   0.611120411398646   0.055543196773200   0.624884485629731   1.0000000
N2   N   0.944439803403193   0.055560196596823   0.624934207794849   1.0000000
N2   N   0.054435432899201   0.110354567134729   0.375000000000000   1.0000000
N2   N   0.556064885622477   0.620523609011881   0.375000000000000   1.0000000
N2   N   0.387694283172792   0.108721899678902   0.375000000000000   1.0000000
N2   N   0.891278100321074   0.612305716827131   0.375000000000000   1.0000000
N2   N   0.722585800902213   0.110354567134729   0.375000000000000   1.0000000
N2   N   0.055557191335553   0.777780753068604   0.875000000000000   1.0000000
N2   N   0.388890228399759   0.777780753068604   0.875000000000000   1.0000000
N2   N   0.222225263508033   0.277779298420730   0.875000000000000   1.0000000
N2   N   0.722220701579345   0.777774736491875   0.875000000000000   1.0000000
N2   N   0.555543893526155   0.277772350980458   0.875000000000000   1.0000000
N2   N   0.888887566272231   0.277778440422878   0.875000000000000   1.0000000
N2   N   0.222222222222221   0.777777777777779   0.375000000000000   1.0000000
N2   N   0.054435432899201   0.277414199097779   0.375000000000000   1.0000000
N2   N   0.379476390988023   0.268874609943829   0.375000000000000   1.0000000
N2   N   0.555204387795800   0.781468098805884   0.375000000000000   1.0000000
N2   N   0.892930377676580   0.781468098805884   0.375000000000000   1.0000000
N2   N   0.724037291702603   0.275962708297429   0.375000000000000   1.0000000
N2   N   0.055558629715473   0.944441370284453   0.875000000000000   1.0000000
N2   N   0.388890228399759   0.944442808664486   0.875000000000000   1.0000000
N2   N   0.222220724225945   0.444446778262235   0.875000000000000   1.0000000
N2   N   0.555555555555557   0.444444444444443   0.875000000000000   1.0000000
N2   N   0.722221559577179   0.944442459182711   0.875000000000000   1.0000000
N2   N   0.888892720702891   0.444446778262235   0.875000000000000   1.0000000
N2   N   0.055716111453418   0.444765556240163   0.375000000000000   1.0000000
N2   N   0.221839061800437   0.943454161737420   0.375000000000000   1.0000000
N2   N   0.555234443759745   0.944283888546579   0.375000000000000   1.0000000
N2   N   0.379476390988023   0.443935114377537   0.375000000000000   1.0000000
N2   N   0.889645432865283   0.945564567100772   0.375000000000000   1.0000000
N2   N   0.731125390056029   0.443935114377537   0.375000000000000   1.0000000
N2   N   0.222219246931372   0.611109771600211   0.875000000000000   1.0000000
N2   N   0.055557540817249   0.111112433727749   0.875000000000000   1.0000000
N2   N   0.555543893526155   0.611104875878856   0.875000000000000   1.0000000
N2   N   0.388889597285764   0.111112527904924   0.875000000000000   1.0000000
N2   N   0.888887472095137   0.611110402714114   0.875000000000000   1.0000000
N2   N   0.056545838262602   0.611718233396326   0.375000000000000   1.0000000
N2   N   0.722221559577179   0.111112433727749   0.875000000000000   1.0000000
N2   N   0.218531901194106   0.107069622323365   0.375000000000000   1.0000000
N2   N   0.387694283172792   0.612305716827131   0.375000000000000   1.0000000
N2   N   0.731125390056029   0.620523609011881   0.375000000000000   1.0000000
N2   N   0.555204387795800   0.107069622323365   0.375000000000000   1.0000000
N2   N   0.388889597285764   0.611110402714114   0.875000000000000   1.0000000
N2   N   0.888888888888886   0.111111111111114   0.375000000000000   1.0000000
N2   N   0.222222222222221   0.777777777777779   0.875000000000000   1.0000000
N2   N   0.055557540817249   0.277778440422878   0.875000000000000   1.0000000
N2   N   0.388895124121070   0.277772350980458   0.875000000000000   1.0000000
N2   N   0.555553221737830   0.777779275774133   0.875000000000000   1.0000000
N2   N   0.888892720702891   0.777779275774133   0.875000000000000   1.0000000
N2   N   0.722220701579345   0.277779298420730   0.875000000000000   1.0000000
N2   N   0.056545838262602   0.778160938199629   0.375000000000000   1.0000000
N2   N   0.388281766603617   0.778160938199629   0.375000000000000   1.0000000
N2   N   0.218592083261495   0.275962708297429   0.375000000000000   1.0000000
N2   N   0.724037291702603   0.781407916738486   0.375000000000000   1.0000000
N2   N   0.556064885622477   0.268874609943829   0.375000000000000   1.0000000
N2   N   0.889645432865283   0.277414199097779   0.375000000000000   1.0000000
N2   N   0.055558629715473   0.444450592764305   0.875000000000000   1.0000000
N2   N   0.222219246931372   0.944442808664486   0.875000000000000   1.0000000
N2   N   0.555549407235708   0.944441370284453   0.875000000000000   1.0000000
N2   N   0.388895124121070   0.444456106473935   0.875000000000000   1.0000000
N2   N   0.888887566272231   0.944442459182711   0.875000000000000   1.0000000
N2   N   0.055716111453418   0.944283888546579   0.375000000000000   1.0000000
N2   N   0.722227649019498   0.444456106473935   0.875000000000000   1.0000000
N2   N   0.388281766603617   0.943454161737420   0.375000000000000   1.0000000
N2   N   0.218531901194106   0.444795612204045   0.375000000000000   1.0000000
N2   N   0.221839061800437   0.611718233396326   0.375000000000000   1.0000000
N2   N   0.722585800902213   0.945564567100772   0.375000000000000   1.0000000
N2   N   0.892930377676580   0.444795612204045   0.375000000000000   1.0000000
N2   N   0.055557191335553   0.611109771600211   0.875000000000000   1.0000000
N2   N   0.222220724225945   0.111107279297029   0.875000000000000   1.0000000
N2   N   0.722227649019498   0.611104875878856   0.875000000000000   1.0000000
N2   N   0.555553221737830   0.111107279297029   0.875000000000000   1.0000000
N2   N   0.888888888888886   0.111111111111114   0.875000000000000   1.0000000
B2   B   0.108801049412327   0.053806339015106   0.375000000000000   1.0000000
B2   B   0.625124382755343   0.583582098844009   0.375000000000000   1.0000000
B2   B   0.443770001722750   0.053577341798051   0.375000000000000   1.0000000
B2   B   0.946422658201895   0.556229998277229   0.375000000000000   1.0000000
B2   B   0.778259980657343   0.055796656995411   0.375000000000000   1.0000000
B2   B   0.111105821047482   0.722219577190415   0.875000000000000   1.0000000
B2   B   0.444435492669776   0.722226627125941   0.875000000000000   1.0000000
B2   B   0.277764071664827   0.222213281686380   0.875000000000000   1.0000000
B2   B   0.777786718313646   0.722235928335089   0.875000000000000   1.0000000
B2   B   0.611115876688223   0.222213281686380   0.875000000000000   1.0000000
B2   B   0.944445872340057   0.222225078013438   0.875000000000000   1.0000000
B2   B   0.277513328257727   0.722486671742238   0.375000000000000   1.0000000
B2   B   0.108445317005635   0.220889325169467   0.375000000000000   1.0000000
B2   B   0.442665421296440   0.218664175926184   0.375000000000000   1.0000000
B2   B   0.612618211919853   0.730081014249728   0.375000000000000   1.0000000
B2   B   0.946422658201895   0.723525993258074   0.375000000000000   1.0000000
B2   B   0.779110674830581   0.220889325169467   0.375000000000000   1.0000000
B2   B   0.111110734161322   0.888889265838793   0.875000000000000   1.0000000
B2   B   0.444445198344012   0.888889265838793   0.875000000000000   1.0000000
B2   B   0.277764071664827   0.388884123311828   0.875000000000000   1.0000000
B2   B   0.611122575888007   0.388877424111948   0.875000000000000   1.0000000
B2   B   0.777784305156078   0.888901943645499   0.875000000000000   1.0000000
B2   B   0.944454508102058   0.388883509085402   0.875000000000000   1.0000000
B2   B   0.108801049412327   0.388328043730506   0.375000000000000   1.0000000
B2   B   0.277513328257727   0.888359989848776   0.375000000000000   1.0000000
B2   B   0.611671956269457   0.891198950587616   0.375000000000000   1.0000000
B2   B   0.416417901155964   0.374875617244656   0.375000000000000   1.0000000
B2   B   0.946193660984839   0.891198950587616   0.375000000000000   1.0000000
B2   B   0.784129468996619   0.387381788080224   0.375000000000000   1.0000000
B2   B   0.277773372874073   0.555564507330308   0.875000000000000   1.0000000
B2   B   0.111095667650115   0.055545491898003   0.875000000000000   1.0000000
B2   B   0.611122575888007   0.555578485109426   0.875000000000000   1.0000000
B2   B   0.444435492669776   0.055542198877170   0.875000000000000   1.0000000
B2   B   0.944457801122718   0.555564507330308   0.875000000000000   1.0000000
B2   B   0.111261045632697   0.555855424598654   0.375000000000000   1.0000000
B2   B   0.777774921986527   0.055554127659949   0.875000000000000   1.0000000
B2   B   0.276474006742002   0.053577341798051   0.375000000000000   1.0000000
B2   B   0.442665421296440   0.557334578703572   0.375000000000000   1.0000000
B2   B   0.781335824073784   0.557334578703572   0.375000000000000   1.0000000
B2   B   0.611671956269457   0.053806339015106   0.375000000000000   1.0000000
B2   B   0.444435571629314   0.555564428370729   0.875000000000000   1.0000000
B2   B   0.944203343004533   0.055796656995411   0.375000000000000   1.0000000
B2   B   0.277780422809593   0.722219577190415   0.875000000000000   1.0000000
B2   B   0.111098056354404   0.222215694843855   0.875000000000000   1.0000000
B2   B   0.444435571629314   0.222204476591910   0.875000000000000   1.0000000
B2   B   0.611115876688223   0.722235928335089   0.875000000000000   1.0000000
B2   B   0.944457801122718   0.722226627125941   0.875000000000000   1.0000000
B2   B   0.777784305156078   0.222215694843855   0.875000000000000   1.0000000
B2   B   0.111640010151280   0.722486671742238   0.375000000000000   1.0000000
B2   B   0.443770001722750   0.723525993258074   0.375000000000000   1.0000000
B2   B   0.269918985750336   0.215870531003443   0.375000000000000   1.0000000
B2   B   0.784129468996619   0.730081014249728   0.375000000000000   1.0000000
B2   B   0.612618211919853   0.215870531003443   0.375000000000000   1.0000000
B2   B   0.944203343004533   0.221740019342561   0.375000000000000   1.0000000
B2   B   0.111095667650115   0.388883509085402   0.875000000000000   1.0000000
B2   B   0.277780422809593   0.888894178952522   0.875000000000000   1.0000000
B2   B   0.611116490914548   0.888904332349883   0.875000000000000   1.0000000
B2   B   0.444421514890606   0.388877424111948   0.875000000000000   1.0000000
B2   B   0.944454508102058   0.888904332349883   0.875000000000000   1.0000000
B2   B   0.111261045632697   0.888738954367336   0.375000000000000   1.0000000
B2   B   0.777786718313646   0.388884123311828   0.875000000000000   1.0000000
B2   B   0.444144575401367   0.888738954367336   0.375000000000000   1.0000000
B2   B   0.269918985750336   0.387381788080224   0.375000000000000   1.0000000
B2   B   0.276474006742002   0.556229998277229   0.375000000000000   1.0000000
B2   B   0.625124382755343   0.374875617244656   0.375000000000000   1.0000000
B2   B   0.779110674830581   0.891554682994322   0.375000000000000   1.0000000
B2   B   0.946193660984839   0.388328043730506   0.375000000000000   1.0000000
B2   B   0.111110734161322   0.555554801655981   0.875000000000000   1.0000000
B2   B   0.277773372874073   0.055542198877170   0.875000000000000   1.0000000
B2   B   0.777795523408036   0.555564428370729   0.875000000000000   1.0000000
B2   B   0.611116490914548   0.055545491898003   0.875000000000000   1.0000000
B2   B   0.944445872340057   0.055554127659949   0.875000000000000   1.0000000
B2   B   0.055512456948770   0.111063101678399   0.125003153444563   1.0000000
B2   B   0.555606969849835   0.611254967297121   0.124358796160965   1.0000000
B2   B   0.388840884764353   0.111015102862021   0.125017955189539   1.0000000
B2   B   0.888984897137952   0.611159115235658   0.125017955189539   1.0000000
B2   B   0.722217311396257   0.111063101678399   0.125003153444563   1.0000000
B2   B   0.055566889096460   0.777765254291624   0.624648094266442   1.0000000
B2   B   0.388865031861742   0.777765254291624   0.624648094266442   1.0000000
B2   B   0.222154868965001   0.277744101149144   0.625416007519016   1.0000000
B2   B   0.722255898850792   0.777845131035049   0.625416007519016   1.0000000
B2   B   0.555606969849835   0.277685335886081   0.625641203839099   1.0000000
B2   B   0.888936898321564   0.277782688603696   0.624996846555445   1.0000000
B2   B   0.222222222222221   0.777777777777779   0.125387916019074   1.0000000
B2   B   0.055512456948770   0.277782688603696   0.125003153444563   1.0000000
B2   B   0.388745032702857   0.277685335886081   0.124358796160965   1.0000000
B2   B   0.555555766019326   0.777840117131217   0.124909734377983   1.0000000
B2   B   0.888951017778604   0.777840117131217   0.124909734377983   1.0000000
B2   B   0.722255898850792   0.277744101149144   0.124583992480829   1.0000000
B2   B   0.055541155526634   0.944458844473411   0.624775019208152   1.0000000
B2   B   0.388865031861742   0.944433110903465   0.624648094266442   1.0000000
B2   B   0.222159882868714   0.444444233980636   0.625090265621856   1.0000000
B2   B   0.555555555555557   0.444444444444443   0.625493258542513   1.0000000
B2   B   0.722217311396257   0.944487543051219   0.624996846555445   1.0000000
B2   B   0.888951017778604   0.444444233980636   0.625090265621856   1.0000000
B2   B   0.055541155526634   0.444415644386565   0.125224980791764   1.0000000
B2   B   0.222234745708429   0.944433110903465   0.125351905733548   1.0000000
B2   B   0.555584355613370   0.944458844473411   0.125224980791764   1.0000000
B2   B   0.388745032702857   0.444393030150155   0.124358796160965   1.0000000
B2   B   0.888936898321564   0.944487543051219   0.125003153444563   1.0000000
B2   B   0.722314664113922   0.444393030150155   0.124358796160965   1.0000000
B2   B   0.222234745708429   0.611134968138129   0.624648094266442   1.0000000
B2   B   0.055512456948770   0.111063101678399   0.624996846555445   1.0000000
B2   B   0.555606969849835   0.611254967297121   0.625641203839099   1.0000000
B2   B   0.388840884764353   0.111015102862021   0.624982044810494   1.0000000
B2   B   0.888984897137952   0.611159115235658   0.624982044810494   1.0000000
B2   B   0.055566889096460   0.611134968138129   0.125351905733548   1.0000000
B2   B   0.722217311396257   0.111063101678399   0.624996846555445   1.0000000
B2   B   0.222159882868714   0.111048982221389   0.124909734377983   1.0000000
B2   B   0.388840884764353   0.611159115235658   0.125017955189539   1.0000000
B2   B   0.722314664113922   0.611254967297121   0.124358796160965   1.0000000
B2   B   0.555555766019326   0.111048982221389   0.124909734377983   1.0000000
B2   B   0.388840884764353   0.611159115235658   0.624982044810494   1.0000000
B2   B   0.888888888888886   0.111111111111114   0.125033644304649   1.0000000
B2   B   0.222222222222221   0.777777777777779   0.624612083980923   1.0000000
B2   B   0.055512456948770   0.277782688603696   0.624996846555445   1.0000000
B2   B   0.388745032702857   0.277685335886081   0.625641203839099   1.0000000
B2   B   0.555555766019326   0.777840117131217   0.625090265621856   1.0000000
B2   B   0.888951017778604   0.777840117131217   0.625090265621856   1.0000000
B2   B   0.722255898850792   0.277744101149144   0.625416007519016   1.0000000
B2   B   0.055566889096460   0.777765254291624   0.125351905733548   1.0000000
B2   B   0.388865031861742   0.777765254291624   0.125351905733548   1.0000000
B2   B   0.222154868965001   0.277744101149144   0.124583992480829   1.0000000
B2   B   0.722255898850792   0.777845131035049   0.124583992480829   1.0000000
B2   B   0.555606969849835   0.277685335886081   0.124358796160965   1.0000000
B2   B   0.888936898321564   0.277782688603696   0.125003153444563   1.0000000
B2   B   0.055541155526634   0.444415644386565   0.624775019208152   1.0000000
B2   B   0.222234745708429   0.944433110903465   0.624648094266442   1.0000000
B2   B   0.555584355613370   0.944458844473411   0.624775019208152   1.0000000
B2   B   0.388745032702857   0.444393030150155   0.625641203839099   1.0000000
B2   B   0.888936898321564   0.944487543051219   0.624996846555445   1.0000000
B2   B   0.055541155526634   0.944458844473411   0.125224980791764   1.0000000
B2   B   0.722314664113922   0.444393030150155   0.625641203839099   1.0000000
B2   B   0.388865031861742   0.944433110903465   0.125351905733548   1.0000000
B2   B   0.222159882868714   0.444444233980636   0.124909734377983   1.0000000
B2   B   0.222234745708429   0.611134968138129   0.125351905733548   1.0000000
B2   B   0.555555555555557   0.444444444444443   0.124506741457424   1.0000000
B2   B   0.722217311396257   0.944487543051219   0.125003153444563   1.0000000
B2   B   0.888951017778604   0.444444233980636   0.124909734377983   1.0000000
B2   B   0.055566889096460   0.611134968138129   0.624648094266442   1.0000000
B2   B   0.222159882868714   0.111048982221389   0.625090265621856   1.0000000
B2   B   0.722314664113922   0.611254967297121   0.625641203839099   1.0000000
B2   B   0.555555766019326   0.111048982221389   0.625090265621856   1.0000000
B2   B   0.888888888888886   0.111111111111114   0.624966355695366   1.0000000


