data_1
_audit_creation_method   'vasp2cif'
_cell_length_a    17.52789999999977
_cell_length_b    17.52789999999977
_cell_length_c    15.0
_cell_angle_alpha    90.0
_cell_angle_beta    90.0
_cell_angle_gamma    119.99999999999916

_symmetry_space_group_name_H-M    'P 1'
loop_
_atom_site_label
_atom_site_type_symbol
_atom_site_fract_x
_atom_site_fract_y
_atom_site_fract_z
_atom_site_occupancy
B2   B   0.905423526216735   0.953166662637307   0.111023223168796   1.0000000
B2   B   0.904678993291502   0.095323027904495   0.111037369567226   1.0000000
B2   B   0.904678993291502   0.237927271713006   0.111037369567226   1.0000000
B2   B   0.905423526216735   0.380829881461430   0.111023223168796   1.0000000
B2   B   0.907444288773819   0.524252930138231   0.111041898160351   1.0000000
B2   B   0.907510829990180   0.668041923936592   0.111065695010240   1.0000000
B2   B   0.907444288773819   0.811764376518599   0.111041898160351   1.0000000
B2   B   0.047803959555412   0.952198061640591   0.111022382065648   1.0000000
B2   B   0.046835358558697   0.094578494979262   0.111023223168796   1.0000000
B2   B   0.046535315171428   0.237554166526715   0.111015103887163   1.0000000
B2   B   0.046835358558697   0.380829881461430   0.111023223168796   1.0000000
B2   B   0.047803959555412   0.524180627353828   0.111022382065648   1.0000000
B2   B   0.048569575201969   0.667223807940174   0.111041651663169   1.0000000
B2   B   0.048569575201969   0.809920496700787   0.111041651663169   1.0000000
B2   B   0.190081524495217   0.951432445994035   0.111041651663169   1.0000000
B2   B   0.188237644677412   0.092557732422177   0.111041898160351   1.0000000
B2   B   0.187970900994779   0.236027804094567   0.111020255743007   1.0000000
B2   B   0.187970900994779   0.380516114782214   0.111020255743007   1.0000000
B2   B   0.188237644677412   0.524252930138231   0.111041898160351   1.0000000
B2   B   0.190081524495217   0.667223807940174   0.111041651663169   1.0000000
B2   B   0.190476437651000   0.809525583545003   0.111008945459764   1.0000000
B2   B   0.332778213256824   0.951432445994035   0.111041651663169   1.0000000
B2   B   0.331960097260406   0.092491191205816   0.111065695010240   1.0000000
B2   B   0.327523979479581   0.231666810625308   0.111008829094119   1.0000000
B2   B   0.329095559819549   0.378834288850274   0.110999642558890   1.0000000
B2   B   0.327523979479581   0.524430186736275   0.111008829094119   1.0000000
B2   B   0.331960097260406   0.668041923936592   0.111065695010240   1.0000000
B2   B   0.332778213256824   0.809920496700787   0.111041651663169   1.0000000
B2   B   0.475821393843171   0.952198061640591   0.111022382065648   1.0000000
B2   B   0.475749091058768   0.092557732422177   0.111041898160351   1.0000000
B2   B   0.475571834460723   0.231666810625308   0.111008829094119   1.0000000
B2   B   0.464697088530432   0.357965173745867   0.111041562383029   1.0000000
B2   B   0.464697088530432   0.535304932666567   0.111041562383029   1.0000000
B2   B   0.475571834460723   0.672478041717417   0.111008829094119   1.0000000
B2   B   0.475749091058768   0.811764376518599   0.111041898160351   1.0000000
B2   B   0.619172139734573   0.953166662637307   0.111023223168796   1.0000000
B2   B   0.619172139734573   0.094578494979262   0.111023223168796   1.0000000
B2   B   0.619485906413790   0.236027804094567   0.111020255743007   1.0000000
B2   B   0.621167732345729   0.378834288850274   0.110999642558890   1.0000000
B2   B   0.642036847450130   0.535304932666567   0.111041562383029   1.0000000
B2   B   0.621167732345729   0.670906461377449   0.110999642558890   1.0000000
B2   B   0.619485906413790   0.812031120201225   0.111020255743007   1.0000000
B2   B   0.762447854669289   0.953466706024576   0.111015103887163   1.0000000
B2   B   0.762074749482991   0.095323027904495   0.111037369567226   1.0000000
B2   B   0.762447854669289   0.237554166526715   0.111015103887163   1.0000000
B2   B   0.763974217101437   0.380516114782214   0.111020255743007   1.0000000
B2   B   0.768335210570696   0.524430186736275   0.111008829094119   1.0000000
B2   B   0.768335210570696   0.672478041717417   0.111008829094119   1.0000000
B2   B   0.763974217101437   0.812031120201225   0.111020255743007   1.0000000
N2   N   0.953310624765056   0.905865048655764   0.111010196555520   1.0000000
N2   N   0.952209415898509   0.047791986019497   0.111013439523655   1.0000000
N2   N   0.951974162114103   0.190271878433548   0.111017210125151   1.0000000
N2   N   0.952209415898509   0.332987024632013   0.111013439523655   1.0000000
N2   N   0.953310624765056   0.476016882418287   0.111010196555520   1.0000000
N2   N   0.953713235421242   0.619476384521570   0.111043443986810   1.0000000
N2   N   0.953713235421242   0.762808157209671   0.111043443986810   1.0000000
N2   N   0.095343510362661   0.904657891555337   0.111009475523064   1.0000000
N2   N   0.094136353262234   0.046690777152950   0.111010196555520   1.0000000
N2   N   0.093869803771647   0.189680577197099   0.111000856040390   1.0000000
N2   N   0.093869803771647   0.332760532883551   0.111000856040390   1.0000000
N2   N   0.094136353262234   0.476016882418287   0.111010196555520   1.0000000
N2   N   0.095343510362661   0.619258636673324   0.111009475523064   1.0000000
N2   N   0.095635987287929   0.762104502576964   0.111010108147728   1.0000000
N2   N   0.237896899341041   0.904365414630070   0.111010108147728   1.0000000
N2   N   0.237193244708335   0.046288166496763   0.111043443986810   1.0000000
N2   N   0.234233460437726   0.186978543735363   0.111008139911130   1.0000000
N2   N   0.235457528674062   0.332014417491532   0.110998216602420   1.0000000
N2   N   0.234233460437726   0.475826223011359   0.111008139911130   1.0000000
N2   N   0.237193244708335   0.619476384521570   0.111043443986810   1.0000000
N2   N   0.237896899341041   0.762104502576964   0.111010108147728   1.0000000
N2   N   0.380742765244674   0.904657891555337   0.111009475523064   1.0000000
N2   N   0.380525017396429   0.046288166496763   0.111043443986810   1.0000000
N2   N   0.379575740030504   0.187721384453008   0.111019899550081   1.0000000
N2   N   0.372993712954375   0.325836615640073   0.110983139226381   1.0000000
N2   N   0.372993712954375   0.475728403623298   0.110983139226381   1.0000000
N2   N   0.379575740030504   0.620425661887494   0.111019899550081   1.0000000
N2   N   0.380525017396429   0.762808157209671   0.111043443986810   1.0000000
N2   N   0.523984519498710   0.905865048655764   0.111010196555520   1.0000000
N2   N   0.523984519498710   0.046690777152950   0.111010196555520   1.0000000
N2   N   0.524175178905638   0.186978543735363   0.111008139911130   1.0000000
N2   N   0.524272998293699   0.325836615640073   0.110983139226381   1.0000000
N2   N   0.524272998293699   0.627007688963631   0.110983139226381   1.0000000
N2   N   0.524175178905638   0.765767941480280   0.111008139911130   1.0000000
N2   N   0.667240869033446   0.906131598146351   0.111000856040390   1.0000000
N2   N   0.667014377284984   0.047791986019497   0.111013439523655   1.0000000
N2   N   0.667240869033446   0.189680577197099   0.111000856040390   1.0000000
N2   N   0.667986984425464   0.332014417491532   0.110998216602420   1.0000000
N2   N   0.674164786276924   0.475728403623298   0.110983139226381   1.0000000
N2   N   0.674164786276924   0.627007688963631   0.110983139226381   1.0000000
N2   N   0.667986984425464   0.764543873243944   0.110998216602420   1.0000000
N2   N   0.810320824720900   0.906131598146351   0.111000856040390   1.0000000
N2   N   0.809729523484450   0.048027239803902   0.111017210125151   1.0000000
N2   N   0.809729523484450   0.190271878433548   0.111017210125151   1.0000000
N2   N   0.810320824720900   0.332760532883551   0.111000856040390   1.0000000
N2   N   0.813022858182636   0.475826223011359   0.111008139911130   1.0000000
N2   N   0.812280017464991   0.620425661887494   0.111019899550081   1.0000000
N2   N   0.813022858182636   0.765767941480280   0.111008139911130   1.0000000
Se2   Se   0.523810499174999   0.476190902741997   0.111110938409309   1.0000000


