data_1
_audit_creation_method   'vasp2cif'
_cell_length_a    14.93631414619966
_cell_length_b    14.936314146199727
_cell_length_c    13.341276283792837
_cell_angle_alpha    90.0
_cell_angle_beta    90.0
_cell_angle_gamma    119.99999999999984

_symmetry_space_group_name_H-M    'P 1'
loop_
_atom_site_label
_atom_site_type_symbol
_atom_site_fract_x
_atom_site_fract_y
_atom_site_fract_z
_atom_site_occupancy
As2   As   0.444444444444443   0.388888888888886   0.375000000000000   1.0000000
N2   N   0.111102861434221   0.055538357950333   0.125145653911022   1.0000000
N2   N   0.611120858710116   0.555565114470353   0.125285246929267   1.0000000
N2   N   0.444435496516112   0.055538357950333   0.125145653911022   1.0000000
N2   N   0.944455926136150   0.555564162398924   0.125115829987504   1.0000000
N2   N   0.777777777777779   0.055555555555557   0.125086615778292   1.0000000
N2   N   0.111111111111114   0.722222222222221   0.624896134922125   1.0000000
N2   N   0.444435496516112   0.722230471899114   0.624854346088978   1.0000000
N2   N   0.277768218862983   0.222212474623219   0.624714753070733   1.0000000
N2   N   0.777794975383002   0.722230471899114   0.624854346088978   1.0000000
N2   N   0.611113407881208   0.222219925452128   0.624835786763267   1.0000000
N2   N   0.944445488951252   0.222228480946094   0.624908810408795   1.0000000
N2   N   0.277769170934412   0.722225097070561   0.125115829987504   1.0000000
N2   N   0.111106517570927   0.222219925452128   0.125164213236732   1.0000000
N2   N   0.444444255760236   0.222212474623219   0.125285246929267   1.0000000
N2   N   0.611113407881208   0.722226815762409   0.125164213236732   1.0000000
N2   N   0.944455926136150   0.722225097070561   0.125115829987504   1.0000000
N2   N   0.777782991994843   0.222228480946094   0.125091189591205   1.0000000
N2   N   0.111108236262774   0.888877407197178   0.624884170012496   1.0000000
N2   N   0.444434864281198   0.888884098807263   0.624906716084913   1.0000000
N2   N   0.277768218862983   0.388889077573092   0.624714753070733   1.0000000
N2   N   0.611120858710116   0.388889077573092   0.624714753070733   1.0000000
N2   N   0.777782991994843   0.888887844382077   0.624908810408795   1.0000000
N2   N   0.944449234526066   0.388898469052131   0.624906716084913   1.0000000
N2   N   0.111102861434221   0.388897836817217   0.125145653911022   1.0000000
N2   N   0.277769170934412   0.888877407197178   0.125115829987504   1.0000000
N2   N   0.611104852387241   0.888887844382077   0.125091189591205   1.0000000
N2   N   0.444444444444443   0.388888888888886   0.125063860498043   1.0000000
N2   N   0.944449234526066   0.888884098807263   0.125093283915086   1.0000000
N2   N   0.777794975383002   0.388897836817217   0.125145653911022   1.0000000
N2   N   0.277769039669897   0.555564293663439   0.624796181388118   1.0000000
N2   N   0.111102861434221   0.055538357950333   0.624854346088978   1.0000000
N2   N   0.611120858710116   0.555565114470353   0.624714753070733   1.0000000
N2   N   0.444435496516112   0.055538357950333   0.624854346088978   1.0000000
N2   N   0.944455926136150   0.555564162398924   0.624884170012496   1.0000000
N2   N   0.111108236262774   0.555564162398924   0.125115829987504   1.0000000
N2   N   0.777777777777779   0.055555555555557   0.624913384221708   1.0000000
N2   N   0.277769039669897   0.055538079339794   0.125203818611882   1.0000000
N2   N   0.444444255760236   0.555565114470353   0.125285246929267   1.0000000
N2   N   0.777795253993542   0.555564293663439   0.125203818611882   1.0000000
N2   N   0.611104852387241   0.055550341338493   0.125091189591205   1.0000000
N2   N   0.444444255760236   0.555565114470353   0.624714753070733   1.0000000
N2   N   0.944445488951252   0.055550341338493   0.125091189591205   1.0000000
N2   N   0.277769170934412   0.722225097070561   0.624884170012496   1.0000000
N2   N   0.111106517570927   0.222219925452128   0.624835786763267   1.0000000
N2   N   0.444444255760236   0.222212474623219   0.624714753070733   1.0000000
N2   N   0.611113407881208   0.722226815762409   0.624835786763267   1.0000000
N2   N   0.944455926136150   0.722225097070561   0.624884170012496   1.0000000
N2   N   0.777782991994843   0.222228480946094   0.624908810408795   1.0000000
N2   N   0.111111111111114   0.722222222222221   0.125103865077875   1.0000000
N2   N   0.444435496516112   0.722230471899114   0.125145653911022   1.0000000
N2   N   0.277768218862983   0.222212474623219   0.125285246929267   1.0000000
N2   N   0.777794975383002   0.722230471899114   0.125145653911022   1.0000000
N2   N   0.611113407881208   0.222219925452128   0.125164213236732   1.0000000
N2   N   0.944445488951252   0.222228480946094   0.125091189591205   1.0000000
N2   N   0.111102861434221   0.388897836817217   0.624854346088978   1.0000000
N2   N   0.277769170934412   0.888877407197178   0.624884170012496   1.0000000
N2   N   0.611104852387241   0.888887844382077   0.624908810408795   1.0000000
N2   N   0.444444444444443   0.388888888888886   0.624936139501957   1.0000000
N2   N   0.944449234526066   0.888884098807263   0.624906716084913   1.0000000
N2   N   0.111108236262774   0.888877407197178   0.125115829987504   1.0000000
N2   N   0.777794975383002   0.388897836817217   0.624854346088978   1.0000000
N2   N   0.444434864281198   0.888884098807263   0.125093283915086   1.0000000
N2   N   0.277768218862983   0.388889077573092   0.125285246929267   1.0000000
N2   N   0.277769039669897   0.555564293663439   0.125203818611882   1.0000000
N2   N   0.611120858710116   0.388889077573092   0.125285246929267   1.0000000
N2   N   0.777782991994843   0.888887844382077   0.125091189591205   1.0000000
N2   N   0.944449234526066   0.388898469052131   0.125093283915086   1.0000000
N2   N   0.111108236262774   0.555564162398924   0.624884170012496   1.0000000
N2   N   0.277769039669897   0.055538079339794   0.624796181388118   1.0000000
N2   N   0.777795253993542   0.555564293663439   0.624796181388118   1.0000000
N2   N   0.611104852387241   0.055550341338493   0.624908810408795   1.0000000
N2   N   0.944445488951252   0.055550341338493   0.624908810408795   1.0000000
N2   N   0.054631069708842   0.110487504939942   0.375000000000000   1.0000000
N2   N   0.556027790554239   0.612055581108478   0.375000000000000   1.0000000
N2   N   0.387808184732998   0.105803561106160   0.375000000000000   1.0000000
N2   N   0.890746689892230   0.612040011612787   0.375000000000000   1.0000000
N2   N   0.722388489643068   0.110944843690268   0.375000000000000   1.0000000
N2   N   0.055553550971012   0.777779782362324   0.875000000000000   1.0000000
N2   N   0.388894315036162   0.777779834305621   0.875000000000000   1.0000000
N2   N   0.222223259994079   0.277778296663707   0.875000000000000   1.0000000
N2   N   0.722221819250820   0.777779775992994   0.875000000000000   1.0000000
N2   N   0.555555036669629   0.277778296663707   0.875000000000000   1.0000000
N2   N   0.888888251589598   0.277776503179204   0.875000000000000   1.0000000
N2   N   0.221886807037021   0.777610070185179   0.375000000000000   1.0000000
N2   N   0.054631069708842   0.277476898102236   0.375000000000000   1.0000000
N2   N   0.379113064327344   0.258226128654696   0.375000000000000   1.0000000
N2   N   0.555856435231100   0.778702263624494   0.375000000000000   1.0000000
N2   N   0.890333530288053   0.778961748844348   0.375000000000000   1.0000000
N2   N   0.722845828393394   0.277476898102236   0.375000000000000   1.0000000
N2   N   0.055553499027715   0.944447814063876   0.875000000000000   1.0000000
N2   N   0.388894315036162   0.944447814063876   0.875000000000000   1.0000000
N2   N   0.222223405046102   0.444439996858464   0.875000000000000   1.0000000
N2   N   0.555554004691161   0.444443669012245   0.875000000000000   1.0000000
N2   N   0.722222593378570   0.944445186757140   0.875000000000000   1.0000000
N2   N   0.888885519269453   0.444439018297167   0.875000000000000   1.0000000
N2   N   0.054371584488988   0.444705114777040   0.375000000000000   1.0000000
N2   N   0.221293321720549   0.942586643441099   0.375000000000000   1.0000000
N2   N   0.555814079447036   0.944573706390183   0.375000000000000   1.0000000
N2   N   0.379113064327344   0.454220269005984   0.375000000000000   1.0000000
N2   N   0.888759626943146   0.944573706390183   0.375000000000000   1.0000000
N2   N   0.727529772227176   0.445525148600330   0.375000000000000   1.0000000
N2   N   0.222225013760439   0.611108319572897   0.875000000000000   1.0000000
N2   N   0.055553557340342   0.111111514082515   0.875000000000000   1.0000000
N2   N   0.555555036669629   0.611110073339257   0.875000000000000   1.0000000
N2   N   0.388893336474865   0.111116741520974   0.875000000000000   1.0000000
N2   N   0.888883305812451   0.611108319572897   0.875000000000000   1.0000000
N2   N   0.055723263148157   0.611446526296314   0.375000000000000   1.0000000
N2   N   0.722222593378570   0.111110739954766   0.875000000000000   1.0000000
N2   N   0.217995376373154   0.105803561106160   0.375000000000000   1.0000000
N2   N   0.387808184732998   0.615337956960182   0.375000000000000   1.0000000
N2   N   0.727529772227176   0.615337956960182   0.375000000000000   1.0000000
N2   N   0.555856435231100   0.110487504939942   0.375000000000000   1.0000000
N2   N   0.388893336474865   0.611109928287233   0.875000000000000   1.0000000
N2   N   0.888556354047193   0.110944843690268   0.375000000000000   1.0000000
N2   N   0.222226231391312   0.777779782362324   0.875000000000000   1.0000000
N2   N   0.055553557340342   0.277775376591162   0.875000000000000   1.0000000
N2   N   0.388889664321084   0.277779328642174   0.875000000000000   1.0000000
N2   N   0.555557956742174   0.777779775992994   0.875000000000000   1.0000000
N2   N   0.888885519269453   0.777779834305621   0.875000000000000   1.0000000
N2   N   0.722221819250820   0.277775376591162   0.875000000000000   1.0000000
N2   N   0.055723263148157   0.777610070185179   0.375000000000000   1.0000000
N2   N   0.388628218556288   0.778961748844348   0.375000000000000   1.0000000
N2   N   0.221277752224858   0.277305542779097   0.375000000000000   1.0000000
N2   N   0.722845828393394   0.778702263624494   0.375000000000000   1.0000000
N2   N   0.556027790554239   0.277305542779097   0.375000000000000   1.0000000
N2   N   0.888759626943146   0.277519253886299   0.375000000000000   1.0000000
N2   N   0.055553499027715   0.444439018297167   0.875000000000000   1.0000000
N2   N   0.222225013760439   0.944450027520878   0.875000000000000   1.0000000
N2   N   0.555556830154132   0.944445081743731   0.875000000000000   1.0000000
N2   N   0.388889664321084   0.444443669012245   0.875000000000000   1.0000000
N2   N   0.888888251589598   0.944445081743731   0.875000000000000   1.0000000
N2   N   0.054371584488988   0.942999803045276   0.375000000000000   1.0000000
N2   N   0.722216591812361   0.444439996858464   0.875000000000000   1.0000000
N2   N   0.388628218556288   0.942999803045276   0.375000000000000   1.0000000
N2   N   0.217995376373154   0.445525148600330   0.375000000000000   1.0000000
N2   N   0.221293321720549   0.612040011612787   0.375000000000000   1.0000000
N2   N   0.575107204678640   0.454220269005984   0.375000000000000   1.0000000
N2   N   0.722388489643068   0.944776979286136   0.375000000000000   1.0000000
N2   N   0.890333530288053   0.444705114777040   0.375000000000000   1.0000000
N2   N   0.055553550971012   0.611107101942024   0.875000000000000   1.0000000
N2   N   0.222223405046102   0.111116741520974   0.875000000000000   1.0000000
N2   N   0.722216591812361   0.611109928287233   0.875000000000000   1.0000000
N2   N   0.555557956742174   0.111111514082515   0.875000000000000   1.0000000
N2   N   0.888888146576188   0.111110739954766   0.875000000000000   1.0000000
B2   B   0.107771260036384   0.052591536876240   0.375000000000000   1.0000000
B2   B   0.619208311649175   0.563759002658538   0.375000000000000   1.0000000
B2   B   0.444820276839855   0.052591536876240   0.375000000000000   1.0000000
B2   B   0.945387428639560   0.555793858010816   0.375000000000000   1.0000000
B2   B   0.777777777777779   0.055555555555557   0.375000000000000   1.0000000
B2   B   0.111111111111114   0.722222222222221   0.875000000000000   1.0000000
B2   B   0.444457766453637   0.722258685642005   0.875000000000000   1.0000000
B2   B   0.277737244900928   0.222188925578280   0.875000000000000   1.0000000
B2   B   0.777800919188368   0.722258685642005   0.875000000000000   1.0000000
B2   B   0.611136728810687   0.222196604522649   0.875000000000000   1.0000000
B2   B   0.944419699596503   0.222206265569461   0.875000000000000   1.0000000
B2   B   0.277539475322519   0.722926903962080   0.375000000000000   1.0000000
B2   B   0.109128863693313   0.221231098513321   0.375000000000000   1.0000000
B2   B   0.444550691009363   0.214125021684161   0.375000000000000   1.0000000
B2   B   0.612102234820015   0.724204469640023   0.375000000000000   1.0000000
B2   B   0.945387428639560   0.722926903962080   0.375000000000000   1.0000000
B2   B   0.778019648120933   0.221662421089977   0.375000000000000   1.0000000
B2   B   0.111099879370440   0.888879134459471   0.875000000000000   1.0000000
B2   B   0.444458921879734   0.888896127606531   0.875000000000000   1.0000000
B2   B   0.277737244900928   0.388881652655976   0.875000000000000   1.0000000
B2   B   0.611144407755055   0.388881652655976   0.875000000000000   1.0000000
B2   B   0.777786565972958   0.888913633736826   0.875000000000000   1.0000000
B2   B   0.944437205726797   0.388874411453595   0.875000000000000   1.0000000
B2   B   0.107771260036384   0.388513056493473   0.375000000000000   1.0000000
B2   B   0.277539475322519   0.887945904693768   0.375000000000000   1.0000000
B2   B   0.611670912243358   0.889690560364286   0.375000000000000   1.0000000
B2   B   0.944234641281023   0.889098692052305   0.375000000000000   1.0000000
B2   B   0.780741796457096   0.388513056493473   0.375000000000000   1.0000000
B2   B   0.277762773145767   0.555570560187569   0.875000000000000   1.0000000
B2   B   0.111074647691331   0.055532414144968   0.875000000000000   1.0000000
B2   B   0.611144407755055   0.555596088432408   0.875000000000000   1.0000000
B2   B   0.444457766453637   0.055532414144968   0.875000000000000   1.0000000
B2   B   0.944454198873858   0.555554078244297   0.875000000000000   1.0000000
B2   B   0.110406429371257   0.555793858010816   0.375000000000000   1.0000000
B2   B   0.777777777777779   0.055555555555557   0.875000000000000   1.0000000
B2   B   0.276087049328277   0.052174098656555   0.375000000000000   1.0000000
B2   B   0.444550691009363   0.563759002658538   0.375000000000000   1.0000000
B2   B   0.781159234676781   0.557246284005058   0.375000000000000   1.0000000
B2   B   0.611670912243358   0.055313685212402   0.375000000000000   1.0000000
B2   B   0.444451680677352   0.555596088432408   0.875000000000000   1.0000000
B2   B   0.943642772969043   0.055313685212402   0.375000000000000   1.0000000
B2   B   0.277779255089038   0.722233453962896   0.875000000000000   1.0000000
B2   B   0.111059875711969   0.222196604522649   0.875000000000000   1.0000000
B2   B   0.444451680677352   0.222188925578280   0.875000000000000   1.0000000
B2   B   0.611136728810687   0.722273457621367   0.875000000000000   1.0000000
B2   B   0.944454198873858   0.722233453962896   0.875000000000000   1.0000000
B2   B   0.777786565972958   0.222206265569461   0.875000000000000   1.0000000
B2   B   0.111111111111114   0.722222222222221   0.375000000000000   1.0000000
B2   B   0.444820276839855   0.725562073296951   0.375000000000000   1.0000000
B2   B   0.269574330674798   0.214125021684161   0.375000000000000   1.0000000
B2   B   0.780741796457096   0.725562073296951   0.375000000000000   1.0000000
B2   B   0.612102234820015   0.221231098513321   0.375000000000000   1.0000000
B2   B   0.943642772969043   0.221662421089977   0.375000000000000   1.0000000
B2   B   0.111074647691331   0.388875566879691   0.875000000000000   1.0000000
B2   B   0.277779255089038   0.888879134459471   0.875000000000000   1.0000000
B2   B   0.611127067763875   0.888913633736826   0.875000000000000   1.0000000
B2   B   0.444444444444443   0.388888888888886   0.875000000000000   1.0000000
B2   B   0.944437205726797   0.888896127606531   0.875000000000000   1.0000000
B2   B   0.110406429371257   0.887945904693768   0.375000000000000   1.0000000
B2   B   0.777800919188368   0.388875566879691   0.875000000000000   1.0000000
B2   B   0.444864050771282   0.889098692052305   0.375000000000000   1.0000000
B2   B   0.269574330674798   0.388782642323966   0.375000000000000   1.0000000
B2   B   0.276087049328277   0.557246284005058   0.375000000000000   1.0000000
B2   B   0.619208311649175   0.388782642323966   0.375000000000000   1.0000000
B2   B   0.778019648120933   0.889690560364286   0.375000000000000   1.0000000
B2   B   0.944234641281023   0.388469282562046   0.375000000000000   1.0000000
B2   B   0.111099879370440   0.555554078244297   0.875000000000000   1.0000000
B2   B   0.277762773145767   0.055525546291534   0.875000000000000   1.0000000
B2   B   0.777807787041802   0.555570560187569   0.875000000000000   1.0000000
B2   B   0.611127067763875   0.055546767360378   0.875000000000000   1.0000000
B2   B   0.944419699596503   0.055546767360378   0.875000000000000   1.0000000
B2   B   0.055466376315455   0.111033715984004   0.124877340873090   1.0000000
B2   B   0.555636130920810   0.611272261841619   0.124731262154798   1.0000000
B2   B   0.388825284259715   0.110919679174128   0.124844716984976   1.0000000
B2   B   0.889008511921588   0.611170922627466   0.124898048400979   1.0000000
B2   B   0.722235236193104   0.111098097140232   0.124913050145083   1.0000000
B2   B   0.055571875467574   0.777761457865761   0.625089112967105   1.0000000
B2   B   0.388851510983254   0.777817004231159   0.625107010697395   1.0000000
B2   B   0.222061071491716   0.277697202412526   0.625268737845202   1.0000000
B2   B   0.722299617349331   0.777866957017880   0.625122659126910   1.0000000
B2   B   0.555636130920810   0.277697202412526   0.625268737845202   1.0000000
B2   B   0.888891503859794   0.277783007719595   0.625094977323285   1.0000000
B2   B   0.222189582398187   0.777761457865761   0.124910887032896   1.0000000
B2   B   0.055466376315455   0.277765993664787   0.124877340873090   1.0000000
B2   B   0.388775706119618   0.277551412239244   0.124322074347689   1.0000000
B2   B   0.555567339668549   0.777866957017880   0.124877340873090   1.0000000
B2   B   0.888965493247898   0.777817004231159   0.124892989302605   1.0000000
B2   B   0.722299617349331   0.277765993664787   0.124877340873090   1.0000000
B2   B   0.055516329102176   0.944367840085431   0.625107010697395   1.0000000
B2   B   0.388851510983254   0.944367840085431   0.625107010697395   1.0000000
B2   B   0.222094394914406   0.444508049073613   0.625155283015024   1.0000000
B2   B   0.555781921094092   0.444557627213710   0.625677925652311   1.0000000
B2   B   0.722235236193104   0.944470472386209   0.625086949854917   1.0000000
B2   B   0.888965493247898   0.444481822350074   0.625107010697395   1.0000000
B2   B   0.055516329102176   0.444481822350074   0.124892989302605   1.0000000
B2   B   0.222162410705870   0.944324821411740   0.124898048400979   1.0000000
B2   B   0.555550325613741   0.944441829473535   0.124905022676714   1.0000000
B2   B   0.388775706119618   0.444557627213710   0.124322074347689   1.0000000
B2   B   0.888891503859794   0.944441829473535   0.124905022676714   1.0000000
B2   B   0.722413654159207   0.444508049073613   0.124844716984976   1.0000000
B2   B   0.222162410705870   0.611170922627466   0.625101951599021   1.0000000
B2   B   0.055466376315455   0.111033715984004   0.625122659126910   1.0000000
B2   B   0.555636130920810   0.611272261841619   0.625268737845202   1.0000000
B2   B   0.388825284259715   0.110919679174128   0.625155283015024   1.0000000
B2   B   0.889008511921588   0.611170922627466   0.625101951599021   1.0000000
B2   B   0.055571875467574   0.611143750935149   0.124910887032896   1.0000000
B2   B   0.722235236193104   0.111098097140232   0.625086949854917   1.0000000
B2   B   0.222094394914406   0.110919679174128   0.124844716984976   1.0000000
B2   B   0.388825284259715   0.611238938418930   0.124844716984976   1.0000000
B2   B   0.722413654159207   0.611238938418930   0.124844716984976   1.0000000
B2   B   0.555567339668549   0.111033715984004   0.124877340873090   1.0000000
B2   B   0.388825284259715   0.611238938418930   0.625155283015024   1.0000000
B2   B   0.888862860947120   0.111098097140232   0.124913050145083   1.0000000
B2   B   0.222189582398187   0.777761457865761   0.625089112967105   1.0000000
B2   B   0.055466376315455   0.277765993664787   0.625122659126910   1.0000000
B2   B   0.388775706119618   0.277551412239244   0.625677925652311   1.0000000
B2   B   0.555567339668549   0.777866957017880   0.625122659126910   1.0000000
B2   B   0.888965493247898   0.777817004231159   0.625107010697395   1.0000000
B2   B   0.722299617349331   0.277765993664787   0.625122659126910   1.0000000
B2   B   0.055571875467574   0.777761457865761   0.124910887032896   1.0000000
B2   B   0.388851510983254   0.777817004231159   0.124892989302605   1.0000000
B2   B   0.222061071491716   0.277697202412526   0.124731262154798   1.0000000
B2   B   0.722299617349331   0.777866957017880   0.124877340873090   1.0000000
B2   B   0.555636130920810   0.277697202412526   0.124731262154798   1.0000000
B2   B   0.888891503859794   0.277783007719595   0.124905022676714   1.0000000
B2   B   0.055516329102176   0.444481822350074   0.625107010697395   1.0000000
B2   B   0.222162410705870   0.944324821411740   0.625101951599021   1.0000000
B2   B   0.555550325613741   0.944441829473535   0.625094977323285   1.0000000
B2   B   0.388775706119618   0.444557627213710   0.625677925652311   1.0000000
B2   B   0.888891503859794   0.944441829473535   0.625094977323285   1.0000000
B2   B   0.055516329102176   0.944367840085431   0.124892989302605   1.0000000
B2   B   0.722413654159207   0.444508049073613   0.625155283015024   1.0000000
B2   B   0.388851510983254   0.944367840085431   0.124892989302605   1.0000000
B2   B   0.222094394914406   0.444508049073613   0.124844716984976   1.0000000
B2   B   0.222162410705870   0.611170922627466   0.124898048400979   1.0000000
B2   B   0.555781921094092   0.444557627213710   0.124322074347689   1.0000000
B2   B   0.722235236193104   0.944470472386209   0.124913050145083   1.0000000
B2   B   0.888965493247898   0.444481822350074   0.124892989302605   1.0000000
B2   B   0.055571875467574   0.611143750935149   0.625089112967105   1.0000000
B2   B   0.222094394914406   0.110919679174128   0.625155283015024   1.0000000
B2   B   0.722413654159207   0.611238938418930   0.625155283015024   1.0000000
B2   B   0.555567339668549   0.111033715984004   0.625122659126910   1.0000000
B2   B   0.888862860947120   0.111098097140232   0.625086949854917   1.0000000


