data_1
_audit_creation_method   'vasp2cif'
_cell_length_a    14.93631414619966
_cell_length_b    14.936314146199727
_cell_length_c    13.341276283792837
_cell_angle_alpha    90.0
_cell_angle_beta    90.0
_cell_angle_gamma    119.99999999999984

_symmetry_space_group_name_H-M    'P 1'
loop_
_atom_site_label
_atom_site_type_symbol
_atom_site_fract_x
_atom_site_fract_y
_atom_site_fract_z
_atom_site_occupancy
N2   N   0.444444444444443   0.388888888888886   0.375000000000000   1.0000000
N2   N   0.111109593414542   0.055559789252642   0.125010110131318   1.0000000
N2   N   0.611097269085091   0.555565854896811   0.125054055117450   1.0000000
N2   N   0.444450195838100   0.055559789252642   0.125010110131318   1.0000000
N2   N   0.944439372529641   0.555553375378413   0.124998433326716   1.0000000
N2   N   0.777777777777779   0.055555555555557   0.124982761561017   1.0000000
N2   N   0.111111111111114   0.722222222222221   0.625010891551949   1.0000000
N2   N   0.444450195838100   0.722223739918794   0.624989889868681   1.0000000
N2   N   0.277767478436524   0.222236064248245   0.624945944882550   1.0000000
N2   N   0.777773544080693   0.722223739918794   0.624989889868681   1.0000000
N2   N   0.611123693214885   0.222209640118451   0.625025181392652   1.0000000
N2   N   0.944433996269718   0.222220117777572   0.625002644502279   1.0000000
N2   N   0.277779957954923   0.722219330484564   0.124998433326716   1.0000000
N2   N   0.111085946903572   0.222209640118451   0.124974818607348   1.0000000
N2   N   0.444468585811721   0.222236064248245   0.125054055117450   1.0000000
N2   N   0.611123693214885   0.722247386429763   0.124974818607348   1.0000000
N2   N   0.944439372529641   0.722219330484564   0.124998433326716   1.0000000
N2   N   0.777786121507853   0.222220117777572   0.124997355497721   1.0000000
N2   N   0.111114002848772   0.888893960803688   0.625001566673284   1.0000000
N2   N   0.444447852997080   0.888890593165204   0.624996027593000   1.0000000
N2   N   0.277767478436524   0.388864747521608   0.624945944882550   1.0000000
N2   N   0.611097269085091   0.388864747521608   0.624945944882550   1.0000000
N2   N   0.777786121507853   0.888899337063610   0.625002644502279   1.0000000
N2   N   0.944442740168124   0.388885480336249   0.624996027593000   1.0000000
N2   N   0.111109593414542   0.388883137495228   0.125010110131318   1.0000000
N2   N   0.277779957954923   0.888893960803688   0.124998433326716   1.0000000
N2   N   0.611113215555764   0.888899337063610   0.124997355497721   1.0000000
N2   N   0.444444444444443   0.388888888888886   0.124983639175075   1.0000000
N2   N   0.944442740168124   0.888890593165204   0.125003972407000   1.0000000
N2   N   0.777773544080693   0.388883137495228   0.125010110131318   1.0000000
N2   N   0.277781992904952   0.555551340428384   0.624997819636517   1.0000000
N2   N   0.111109593414542   0.055559789252642   0.624989889868681   1.0000000
N2   N   0.611097269085091   0.555565854896811   0.624945944882550   1.0000000
N2   N   0.444450195838100   0.055559789252642   0.624989889868681   1.0000000
N2   N   0.944439372529641   0.555553375378413   0.625001566673284   1.0000000
N2   N   0.111114002848772   0.555553375378413   0.124998433326716   1.0000000
N2   N   0.777777777777779   0.055555555555557   0.625017238438983   1.0000000
N2   N   0.277781992904952   0.055563985809904   0.125002180363483   1.0000000
N2   N   0.444468585811721   0.555565854896811   0.125054055117450   1.0000000
N2   N   0.777769347523432   0.555551340428384   0.125002180363483   1.0000000
N2   N   0.611113215555764   0.055547211825483   0.124997355497721   1.0000000
N2   N   0.444468585811721   0.555565854896811   0.624945944882550   1.0000000
N2   N   0.944433996269718   0.055547211825483   0.124997355497721   1.0000000
N2   N   0.277779957954923   0.722219330484564   0.625001566673284   1.0000000
N2   N   0.111085946903572   0.222209640118451   0.625025181392652   1.0000000
N2   N   0.444468585811721   0.222236064248245   0.624945944882550   1.0000000
N2   N   0.611123693214885   0.722247386429763   0.625025181392652   1.0000000
N2   N   0.944439372529641   0.722219330484564   0.625001566673284   1.0000000
N2   N   0.777786121507853   0.222220117777572   0.625002644502279   1.0000000
N2   N   0.111111111111114   0.722222222222221   0.124989108448051   1.0000000
N2   N   0.444450195838100   0.722223739918794   0.125010110131318   1.0000000
N2   N   0.277767478436524   0.222236064248245   0.125054055117450   1.0000000
N2   N   0.777773544080693   0.722223739918794   0.125010110131318   1.0000000
N2   N   0.611123693214885   0.222209640118451   0.124974818607348   1.0000000
N2   N   0.944433996269718   0.222220117777572   0.124997355497721   1.0000000
N2   N   0.111109593414542   0.388883137495228   0.624989889868681   1.0000000
N2   N   0.277779957954923   0.888893960803688   0.625001566673284   1.0000000
N2   N   0.611113215555764   0.888899337063610   0.625002644502279   1.0000000
N2   N   0.444444444444443   0.388888888888886   0.625016360824925   1.0000000
N2   N   0.944442740168124   0.888890593165204   0.624996027593000   1.0000000
N2   N   0.111114002848772   0.888893960803688   0.124998433326716   1.0000000
N2   N   0.777773544080693   0.388883137495228   0.624989889868681   1.0000000
N2   N   0.444447852997080   0.888890593165204   0.125003972407000   1.0000000
N2   N   0.277767478436524   0.388864747521608   0.125054055117450   1.0000000
N2   N   0.277781992904952   0.555551340428384   0.125002180363483   1.0000000
N2   N   0.611097269085091   0.388864747521608   0.125054055117450   1.0000000
N2   N   0.777786121507853   0.888899337063610   0.124997355497721   1.0000000
N2   N   0.944442740168124   0.388885480336249   0.125003972407000   1.0000000
N2   N   0.111114002848772   0.555553375378413   0.625001566673284   1.0000000
N2   N   0.277781992904952   0.055563985809904   0.624997819636517   1.0000000
N2   N   0.777769347523432   0.555551340428384   0.624997819636517   1.0000000
N2   N   0.611113215555764   0.055547211825483   0.625002644502279   1.0000000
N2   N   0.944433996269718   0.055547211825483   0.625002644502279   1.0000000
N2   N   0.055828378636637   0.111269692768593   0.375000000000000   1.0000000
N2   N   0.555501276062141   0.611002552124283   0.375000000000000   1.0000000
N2   N   0.388893271596383   0.112445011667979   0.375000000000000   1.0000000
N2   N   0.888557969628784   0.610945651481063   0.375000000000000   1.0000000
N2   N   0.722172857914859   0.111160475418477   0.375000000000000   1.0000000
N2   N   0.055556301025557   0.777777032307779   0.875000000000000   1.0000000
N2   N   0.388890370920296   0.777777383472093   0.875000000000000   1.0000000
N2   N   0.222222474908635   0.277777904120986   0.875000000000000   1.0000000
N2   N   0.722223949556738   0.777777183373318   0.875000000000000   1.0000000
N2   N   0.555555429212350   0.277777904120986   0.875000000000000   1.0000000
N2   N   0.888890047715553   0.277780095431113   0.875000000000000   1.0000000
N2   N   0.222295321308513   0.777814327320925   0.375000000000000   1.0000000
N2   N   0.055828378636637   0.277892019201380   0.375000000000000   1.0000000
N2   N   0.390259359207387   0.280518718414782   0.375000000000000   1.0000000
N2   N   0.555441314131955   0.777504954696698   0.375000000000000   1.0000000
N2   N   0.888464818857074   0.777408808811006   0.375000000000000   1.0000000
N2   N   0.722063640564742   0.277892019201380   0.375000000000000   1.0000000
N2   N   0.055555949861243   0.944446320781539   0.875000000000000   1.0000000
N2   N   0.388890370920296   0.944446320781539   0.875000000000000   1.0000000
N2   N   0.222220532853870   0.444442052423589   0.875000000000000   1.0000000
N2   N   0.555552419580602   0.444442876456965   0.875000000000000   1.0000000
N2   N   0.722222807981598   0.944445615963197   0.875000000000000   1.0000000
N2   N   0.888887012551789   0.444442962413032   0.875000000000000   1.0000000
N2   N   0.055924524522330   0.444389343379404   0.375000000000000   1.0000000
N2   N   0.222387681852272   0.944775363704545   0.375000000000000   1.0000000
N2   N   0.555470194781132   0.944401764057231   0.375000000000000   1.0000000
N2   N   0.390259359207387   0.443073974125941   0.375000000000000   1.0000000
N2   N   0.888931569276098   0.944401764057231   0.375000000000000   1.0000000
N2   N   0.720888321665357   0.444440061736946   0.375000000000000   1.0000000
N2   N   0.222222489921369   0.611110843411967   0.875000000000000   1.0000000
N2   N   0.055556149960018   0.111109383776598   0.875000000000000   1.0000000
N2   N   0.555555429212350   0.611110858424700   0.875000000000000   1.0000000
N2   N   0.388891280909740   0.111111813763617   0.875000000000000   1.0000000
N2   N   0.888888353490591   0.611110843411967   0.875000000000000   1.0000000
N2   N   0.055519006012411   0.611038012024822   0.375000000000000   1.0000000
N2   N   0.722222807981598   0.111110525351737   0.875000000000000   1.0000000
N2   N   0.223551740071589   0.112445011667979   0.375000000000000   1.0000000
N2   N   0.388893271596383   0.609781593261746   0.375000000000000   1.0000000
N2   N   0.720888321665357   0.609781593261746   0.375000000000000   1.0000000
N2   N   0.555441314131955   0.111269692768593   0.375000000000000   1.0000000
N2   N   0.388891280909740   0.611112800479466   0.875000000000000   1.0000000
N2   N   0.888987617503611   0.111160475418477   0.375000000000000   1.0000000
N2   N   0.222220731282221   0.777777032307779   0.875000000000000   1.0000000
N2   N   0.055556149960018   0.277780099516756   0.875000000000000   1.0000000
N2   N   0.388890456876363   0.277780913752734   0.875000000000000   1.0000000
N2   N   0.555553233816580   0.777777183373318   0.875000000000000   1.0000000
N2   N   0.888887012551789   0.777777383472093   0.875000000000000   1.0000000
N2   N   0.722223949556738   0.277780099516756   0.875000000000000   1.0000000
N2   N   0.055519006012411   0.777814327320925   0.375000000000000   1.0000000
N2   N   0.388943989953925   0.777408808811006   0.375000000000000   1.0000000
N2   N   0.222330781209053   0.277832057271194   0.375000000000000   1.0000000
N2   N   0.722063640564742   0.777504954696698   0.375000000000000   1.0000000
N2   N   0.555501276062141   0.277832057271194   0.375000000000000   1.0000000
N2   N   0.888931569276098   0.277863138552203   0.375000000000000   1.0000000
N2   N   0.055555949861243   0.444442962413032   0.875000000000000   1.0000000
N2   N   0.222222489921369   0.944444979842738   0.875000000000000   1.0000000
N2   N   0.555553237902222   0.944443285617776   0.875000000000000   1.0000000
N2   N   0.388890456876363   0.444442876456965   0.875000000000000   1.0000000
N2   N   0.888890047715553   0.944443285617776   0.875000000000000   1.0000000
N2   N   0.055924524522330   0.944868514476255   0.375000000000000   1.0000000
N2   N   0.722221519569719   0.444442052423589   0.875000000000000   1.0000000
N2   N   0.388943989953925   0.944868514476255   0.375000000000000   1.0000000
N2   N   0.223551740071589   0.444440061736946   0.375000000000000   1.0000000
N2   N   0.222387681852272   0.610945651481063   0.375000000000000   1.0000000
N2   N   0.552814614918554   0.443073974125941   0.375000000000000   1.0000000
N2   N   0.722172857914859   0.944345715829717   0.375000000000000   1.0000000
N2   N   0.888464818857074   0.444389343379404   0.375000000000000   1.0000000
N2   N   0.055556301025557   0.611112602051115   0.875000000000000   1.0000000
N2   N   0.222220532853870   0.111111813763617   0.875000000000000   1.0000000
N2   N   0.722221519569719   0.611112800479466   0.875000000000000   1.0000000
N2   N   0.555553233816580   0.111109383776598   0.875000000000000   1.0000000
N2   N   0.888887717370131   0.111110525351737   0.875000000000000   1.0000000
B2   B   0.111927475548006   0.056302496538314   0.375000000000000   1.0000000
B2   B   0.609381044468320   0.554281985698573   0.375000000000000   1.0000000
B2   B   0.444375020990308   0.056302496538314   0.375000000000000   1.0000000
B2   B   0.944258349659873   0.555529402125404   0.375000000000000   1.0000000
B2   B   0.777777777777779   0.055555555555557   0.375000000000000   1.0000000
B2   B   0.111111111111114   0.722222222222221   0.875000000000000   1.0000000
B2   B   0.444444345385314   0.722219533014225   0.875000000000000   1.0000000
B2   B   0.277770369319328   0.222242505474776   0.875000000000000   1.0000000
B2   B   0.777775187628911   0.722219533014225   0.875000000000000   1.0000000
B2   B   0.611094363605937   0.222238969727399   0.875000000000000   1.0000000
B2   B   0.944432467511437   0.222238378288550   0.875000000000000   1.0000000
B2   B   0.277803931207932   0.722062280867805   0.375000000000000   1.0000000
B2   B   0.111421437022348   0.222377385177839   0.375000000000000   1.0000000
B2   B   0.444900941230253   0.223952288865016   0.375000000000000   1.0000000
B2   B   0.610955948155497   0.721911896310987   0.375000000000000   1.0000000
B2   B   0.944258349659873   0.722062280867805   0.375000000000000   1.0000000
B2   B   0.777769238756828   0.222367803230707   0.375000000000000   1.0000000
B2   B   0.111139803638241   0.888905066182477   0.875000000000000   1.0000000
B2   B   0.444472198048119   0.888902765690724   0.875000000000000   1.0000000
B2   B   0.277770369319328   0.388861197177881   0.875000000000000   1.0000000
B2   B   0.611090827858560   0.388861197177881   0.875000000000000   1.0000000
B2   B   0.777805910777113   0.888900865821891   0.875000000000000   1.0000000
B2   B   0.944430567642605   0.388861135285210   0.875000000000000   1.0000000
B2   B   0.111927475548006   0.388958312343020   0.375000000000000   1.0000000
B2   B   0.277803931207932   0.889074983673455   0.375000000000000   1.0000000
B2   B   0.610965530102629   0.888734768859450   0.375000000000000   1.0000000
B2   B   0.944465007866178   0.888868325467151   0.375000000000000   1.0000000
B2   B   0.777030836795021   0.388958312343020   0.375000000000000   1.0000000
B2   B   0.277766136361782   0.555567196971553   0.875000000000000   1.0000000
B2   B   0.111113800319111   0.055558145704425   0.875000000000000   1.0000000
B2   B   0.611090827858560   0.555562964014007   0.875000000000000   1.0000000
B2   B   0.444444345385314   0.055558145704425   0.875000000000000   1.0000000
B2   B   0.944428267150851   0.555568070789092   0.875000000000000   1.0000000
B2   B   0.111271052465530   0.555529402125404   0.375000000000000   1.0000000
B2   B   0.777777777777779   0.055555555555557   0.875000000000000   1.0000000
B2   B   0.277996628248514   0.055993256497027   0.375000000000000   1.0000000
B2   B   0.444900941230253   0.554281985698573   0.375000000000000   1.0000000
B2   B   0.777340076836308   0.555336705084822   0.375000000000000   1.0000000
B2   B   0.610965530102629   0.055564094576508   0.375000000000000   1.0000000
B2   B   0.444472136155448   0.555562964014007   0.875000000000000   1.0000000
B2   B   0.944598564473879   0.055564094576508   0.375000000000000   1.0000000
B2   B   0.277765262544244   0.722193529695095   0.875000000000000   1.0000000
B2   B   0.111144606121469   0.222238969727399   0.875000000000000   1.0000000
B2   B   0.444472136155448   0.222242505474776   0.875000000000000   1.0000000
B2   B   0.611094363605937   0.722188727211867   0.875000000000000   1.0000000
B2   B   0.944428267150851   0.722193529695095   0.875000000000000   1.0000000
B2   B   0.777805910777113   0.222238378288550   0.875000000000000   1.0000000
B2   B   0.111111111111114   0.722222222222221   0.375000000000000   1.0000000
B2   B   0.444375020990308   0.721405857785330   0.375000000000000   1.0000000
B2   B   0.279051347634762   0.223952288865016   0.375000000000000   1.0000000
B2   B   0.777030836795021   0.721405857785330   0.375000000000000   1.0000000
B2   B   0.610955948155497   0.222377385177839   0.375000000000000   1.0000000
B2   B   0.944598564473879   0.222367803230707   0.375000000000000   1.0000000
B2   B   0.111113800319111   0.388888987948015   0.875000000000000   1.0000000
B2   B   0.277765262544244   0.888905066182477   0.875000000000000   1.0000000
B2   B   0.611094955044785   0.888900865821891   0.875000000000000   1.0000000
B2   B   0.444444444444443   0.388888888888886   0.875000000000000   1.0000000
B2   B   0.944430567642605   0.888902765690724   0.875000000000000   1.0000000
B2   B   0.111271052465530   0.889074983673455   0.375000000000000   1.0000000
B2   B   0.777775187628911   0.388888987948015   0.875000000000000   1.0000000
B2   B   0.444403317600973   0.888868325467151   0.375000000000000   1.0000000
B2   B   0.279051347634762   0.388432392103076   0.375000000000000   1.0000000
B2   B   0.277996628248514   0.555336705084822   0.375000000000000   1.0000000
B2   B   0.609381044468320   0.388432392103076   0.375000000000000   1.0000000
B2   B   0.777769238756828   0.888734768859450   0.375000000000000   1.0000000
B2   B   0.944465007866178   0.388930015732355   0.375000000000000   1.0000000
B2   B   0.111139803638241   0.555568070789092   0.875000000000000   1.0000000
B2   B   0.277766136361782   0.055532272723565   0.875000000000000   1.0000000
B2   B   0.777801060609771   0.555567196971553   0.875000000000000   1.0000000
B2   B   0.611094955044785   0.055527422556223   0.875000000000000   1.0000000
B2   B   0.944432467511437   0.055527422556223   0.875000000000000   1.0000000
B2   B   0.055564108226479   0.111098210183776   0.125000998286888   1.0000000
B2   B   0.555556208002814   0.611112416005628   0.125012536990021   1.0000000
B2   B   0.388918106074502   0.111122057697131   0.125026707454323   1.0000000
B2   B   0.888875416097197   0.611104374715270   0.125002274210044   1.0000000
B2   B   0.722239179041244   0.111094154292092   0.125002408893188   1.0000000
B2   B   0.055568806574238   0.777764526759098   0.624994461088943   1.0000000
B2   B   0.388909832868384   0.777761653454084   0.624989913692084   1.0000000
B2   B   0.222220917327707   0.277777125330522   0.624987463009979   1.0000000
B2   B   0.722235123149559   0.777769225106857   0.624999001713112   1.0000000
B2   B   0.555556208002814   0.277777125330522   0.624987463009979   1.0000000
B2   B   0.888887080843408   0.277774161686822   0.624994221121889   1.0000000
B2   B   0.222195720184861   0.777764526759098   0.125005538911057   1.0000000
B2   B   0.055564108226479   0.277799231376038   0.125000998286888   1.0000000
B2   B   0.388932358364084   0.277864716728175   0.125184135126885   1.0000000
B2   B   0.555534101957297   0.777769225106857   0.125000998286888   1.0000000
B2   B   0.888851820585693   0.777761653454084   0.125010086307916   1.0000000
B2   B   0.722235123149559   0.277799231376038   0.125000998286888   1.0000000
B2   B   0.055571679879252   0.944481512747636   0.624989913692084   1.0000000
B2   B   0.388909832868384   0.944481512747636   0.624989913692084   1.0000000
B2   B   0.222203951622622   0.444415227258826   0.624973292545677   1.0000000
B2   B   0.555468616605160   0.444400974969245   0.624815864873115   1.0000000
B2   B   0.722239179041244   0.944478358082488   0.624997591106812   1.0000000
B2   B   0.888851820585693   0.444423500464944   0.624989913692084   1.0000000
B2   B   0.055571679879252   0.444423500464944   0.125010086307916   1.0000000
B2   B   0.222228958618066   0.944457917236131   0.125002274210044   1.0000000
B2   B   0.555559171646514   0.944446252489921   0.125005778878111   1.0000000
B2   B   0.388932358364084   0.444400974969245   0.125184135126885   1.0000000
B2   B   0.888887080843408   0.944446252489921   0.125005778878111   1.0000000
B2   B   0.722211275636205   0.444415227258826   0.125026707454323   1.0000000
B2   B   0.222228958618066   0.611104374715270   0.624997725789956   1.0000000
B2   B   0.055564108226479   0.111098210183776   0.624999001713112   1.0000000
B2   B   0.555556208002814   0.611112416005628   0.624987463009979   1.0000000
B2   B   0.388918106074502   0.111122057697131   0.624973292545677   1.0000000
B2   B   0.888875416097197   0.611104374715270   0.624997725789956   1.0000000
B2   B   0.055568806574238   0.611137613148475   0.125005538911057   1.0000000
B2   B   0.722239179041244   0.111094154292092   0.624997591106812   1.0000000
B2   B   0.222203951622622   0.111122057697131   0.125026707454323   1.0000000
B2   B   0.388918106074502   0.611129381710714   0.125026707454323   1.0000000
B2   B   0.722211275636205   0.611129381710714   0.125026707454323   1.0000000
B2   B   0.555534101957297   0.111098210183776   0.125000998286888   1.0000000
B2   B   0.388918106074502   0.611129381710714   0.624973292545677   1.0000000
B2   B   0.888854975250841   0.111094154292092   0.125002408893188   1.0000000
B2   B   0.222195720184861   0.777764526759098   0.624994461088943   1.0000000
B2   B   0.055564108226479   0.277799231376038   0.624999001713112   1.0000000
B2   B   0.388932358364084   0.277864716728175   0.624815864873115   1.0000000
B2   B   0.555534101957297   0.777769225106857   0.624999001713112   1.0000000
B2   B   0.888851820585693   0.777761653454084   0.624989913692084   1.0000000
B2   B   0.722235123149559   0.277799231376038   0.624999001713112   1.0000000
B2   B   0.055568806574238   0.777764526759098   0.125005538911057   1.0000000
B2   B   0.388909832868384   0.777761653454084   0.125010086307916   1.0000000
B2   B   0.222220917327707   0.277777125330522   0.125012536990021   1.0000000
B2   B   0.722235123149559   0.777769225106857   0.125000998286888   1.0000000
B2   B   0.555556208002814   0.277777125330522   0.125012536990021   1.0000000
B2   B   0.888887080843408   0.277774161686822   0.125005778878111   1.0000000
B2   B   0.055571679879252   0.444423500464944   0.624989913692084   1.0000000
B2   B   0.222228958618066   0.944457917236131   0.624997725789956   1.0000000
B2   B   0.555559171646514   0.944446252489921   0.624994221121889   1.0000000
B2   B   0.388932358364084   0.444400974969245   0.624815864873115   1.0000000
B2   B   0.888887080843408   0.944446252489921   0.624994221121889   1.0000000
B2   B   0.055571679879252   0.944481512747636   0.125010086307916   1.0000000
B2   B   0.722211275636205   0.444415227258826   0.624973292545677   1.0000000
B2   B   0.388909832868384   0.944481512747636   0.125010086307916   1.0000000
B2   B   0.222203951622622   0.444415227258826   0.125026707454323   1.0000000
B2   B   0.222228958618066   0.611104374715270   0.125002274210044   1.0000000
B2   B   0.555468616605160   0.444400974969245   0.125184135126885   1.0000000
B2   B   0.722239179041244   0.944478358082488   0.125002408893188   1.0000000
B2   B   0.888851820585693   0.444423500464944   0.125010086307916   1.0000000
B2   B   0.055568806574238   0.611137613148475   0.624994461088943   1.0000000
B2   B   0.222203951622622   0.111122057697131   0.624973292545677   1.0000000
B2   B   0.722211275636205   0.611129381710714   0.624973292545677   1.0000000
B2   B   0.555534101957297   0.111098210183776   0.624999001713112   1.0000000
B2   B   0.888854975250841   0.111094154292092   0.624997591106812   1.0000000


