data_1
_audit_creation_method   'vasp2cif'
_cell_length_a    14.93631414619966
_cell_length_b    14.936314146199727
_cell_length_c    13.341276283792837
_cell_angle_alpha    90.0
_cell_angle_beta    90.0
_cell_angle_gamma    119.99999999999984

_symmetry_space_group_name_H-M    'P 1'
loop_
_atom_site_label
_atom_site_type_symbol
_atom_site_fract_x
_atom_site_fract_y
_atom_site_fract_z
_atom_site_occupancy
Ge2   Ge   0.420109374461465   0.376721353897284   0.375000000000000   1.0000000
Ge2   Ge   0.578254706835273   0.455794020084499   0.375000000000000   1.0000000
N2   N   0.110805730118966   0.055374948299877   0.124436891576351   1.0000000
N2   N   0.610855517327020   0.555438115806222   0.131475947935733   1.0000000
N2   N   0.444129939192855   0.055401467754075   0.124729845689529   1.0000000
N2   N   0.944159019569404   0.555426016616848   0.124894616829450   1.0000000
N2   N   0.777467654781824   0.055400494057674   0.124000078703286   1.0000000
N2   N   0.110817619566288   0.722075476449407   0.625657103133864   1.0000000
N2   N   0.444129939192855   0.722061804771811   0.625270154310613   1.0000000
N2   N   0.277446272976900   0.222024173825515   0.621976188431484   1.0000000
N2   N   0.777493992147037   0.722062998966828   0.624226491807285   1.0000000
N2   N   0.610786768612443   0.222080617422409   0.623955052055561   1.0000000
N2   N   0.944154183311827   0.222090753492386   0.626007297092157   1.0000000
N2   N   0.277470610033247   0.722075447990371   0.124166451953281   1.0000000
N2   N   0.110832238308109   0.222082785820812   0.124971547215067   1.0000000
N2   N   0.444141042668160   0.222081476654666   0.128787098892522   1.0000000
N2   N   0.610786768612443   0.722039484523339   0.126044947944299   1.0000000
N2   N   0.944159019569404   0.722066336285530   0.124894616829450   1.0000000
N2   N   0.777462793329639   0.222089504522131   0.124270245501022   1.0000000
N2   N   0.110815152740929   0.888721543974428   0.625741778567078   1.0000000
N2   N   0.444123982929615   0.888728658131278   0.626088275435464   1.0000000
N2   N   0.277446272976900   0.388755432484740   0.621976188431484   1.0000000
N2   N   0.610855517327020   0.388750734853915   0.618524052064102   1.0000000
N2   N   0.777462793329639   0.888706622140801   0.625729754498864   1.0000000
N2   N   0.944150515945351   0.388762660035460   0.625910513117064   1.0000000
N2   N   0.110805730118966   0.388764115152366   0.124436891576351   1.0000000
N2   N   0.277470610033247   0.888728495375834   0.124166451953281   1.0000000
N2   N   0.610789534864091   0.888722680893312   0.124064473618241   1.0000000
N2   N   0.443893375529221   0.388613354431304   0.137943643121489   1.0000000
N2   N   0.944150515945351   0.888721189243387   0.124089486882977   1.0000000
N2   N   0.777493992147037   0.388764326513610   0.125773508192909   1.0000000
N2   N   0.277478638178870   0.555423542365375   0.624695517095118   1.0000000
N2   N   0.110805730118966   0.055374948299877   0.625563108423855   1.0000000
N2   N   0.610855517327020   0.555438115806222   0.618524052064130   1.0000000
N2   N   0.444129939192855   0.055401467754075   0.625270154310613   1.0000000
N2   N   0.944159019569404   0.555426016616848   0.625105383170475   1.0000000
N2   N   0.110815152740929   0.555426942100417   0.124258221433098   1.0000000
N2   N   0.777467654781824   0.055400494057674   0.625999921296912   1.0000000
N2   N   0.277478638178870   0.055388429146837   0.125304482904811   1.0000000
N2   N   0.444141042668160   0.555392899347084   0.128787098892521   1.0000000
N2   N   0.777485981033751   0.555409657183316   0.127551850203467   1.0000000
N2   N   0.610789534864091   0.055400187304365   0.124064473618241   1.0000000
N2   N   0.444141042668160   0.555392899347084   0.621212901107910   1.0000000
N2   N   0.944154183311827   0.055396763152863   0.123992702907785   1.0000000
N2   N   0.277470610033247   0.722075447990371   0.625833548046579   1.0000000
N2   N   0.110832238308109   0.222082785820812   0.625028452784943   1.0000000
N2   N   0.444141042668160   0.222081476654666   0.621212901107910   1.0000000
N2   N   0.610786768612443   0.722039484523339   0.623955052055561   1.0000000
N2   N   0.944159019569404   0.722066336285530   0.625105383170475   1.0000000
N2   N   0.777462793329639   0.222089504522131   0.625729754498864   1.0000000
N2   N   0.110817619566288   0.722075476449407   0.124342896866073   1.0000000
N2   N   0.444129939192855   0.722061804771811   0.124729845689522   1.0000000
N2   N   0.277446272976900   0.222024173825515   0.128023811568616   1.0000000
N2   N   0.777493992147037   0.722062998966828   0.125773508192882   1.0000000
N2   N   0.610786768612443   0.222080617422409   0.126044947944298   1.0000000
N2   N   0.944154183311827   0.222090753492386   0.123992702907785   1.0000000
N2   N   0.110805730118966   0.388764115152366   0.625563108423855   1.0000000
N2   N   0.277470610033247   0.888728495375834   0.625833548046579   1.0000000
N2   N   0.610789534864091   0.888722680893312   0.625935526381846   1.0000000
N2   N   0.443893375529221   0.388613354431304   0.612056356878556   1.0000000
N2   N   0.944150515945351   0.888721189243387   0.625910513117064   1.0000000
N2   N   0.110815152740929   0.888721543974428   0.124258221433098   1.0000000
N2   N   0.777493992147037   0.388764326513610   0.624226491807285   1.0000000
N2   N   0.444123982929615   0.888728658131278   0.123911724564559   1.0000000
N2   N   0.277446272976900   0.388755432484740   0.128023811568616   1.0000000
N2   N   0.277478638178870   0.555423542365375   0.125304482904811   1.0000000
N2   N   0.610855517327020   0.388750734853915   0.131475947935733   1.0000000
N2   N   0.777462793329639   0.888706622140801   0.124270245501022   1.0000000
N2   N   0.944150515945351   0.388762660035460   0.124089486882977   1.0000000
N2   N   0.110815152740929   0.555426942100417   0.625741778567078   1.0000000
N2   N   0.277478638178870   0.055388429146837   0.624695517095118   1.0000000
N2   N   0.777485981033751   0.555409657183316   0.622448149796212   1.0000000
N2   N   0.610789534864091   0.055400187304365   0.625935526381846   1.0000000
N2   N   0.944154183311827   0.055396763152863   0.626007297092157   1.0000000
N2   N   0.056008928699048   0.111248920181316   0.375000000000000   1.0000000
N2   N   0.557245484382977   0.624896957647528   0.375000000000000   1.0000000
N2   N   0.387702642769979   0.102602418205805   0.375000000000000   1.0000000
N2   N   0.892008602631581   0.612670967982215   0.375000000000000   1.0000000
N2   N   0.724406163629354   0.110696041590620   0.375000000000000   1.0000000
N2   N   0.055070295782755   0.777541291575121   0.875000000000000   1.0000000
N2   N   0.388432974344211   0.777539589348377   0.875000000000000   1.0000000
N2   N   0.221760074944291   0.277546704138849   0.875000000000000   1.0000000
N2   N   0.721747056420428   0.777536696221022   0.875000000000000   1.0000000
N2   N   0.555083457978630   0.277556487807248   0.875000000000000   1.0000000
N2   N   0.888420550866837   0.277540503608747   0.875000000000000   1.0000000
N2   N   0.221965225001965   0.777649279167382   0.375000000000000   1.0000000
N2   N   0.056008928699053   0.278093341851075   0.375000000000000   1.0000000
N2   N   0.373916808770302   0.249375053384152   0.375000000000000   1.0000000
N2   N   0.556586089076212   0.784350534722748   0.375000000000000   1.0000000
N2   N   0.894753816792651   0.783048151437137   0.375000000000000   1.0000000
N2   N   0.725828801706305   0.275428078298827   0.375000000000000   1.0000000
N2   N   0.055085799978798   0.944218519048684   0.875000000000000   1.0000000
N2   N   0.388432974344211   0.944226718328917   0.875000000000000   1.0000000
N2   N   0.221758651180946   0.444193770447204   0.875000000000000   1.0000000
N2   N   0.555065028720948   0.444199181027138   0.875000000000000   1.0000000
N2   N   0.721754647446299   0.944209386457413   0.875000000000000   1.0000000
N2   N   0.888406037975114   0.444199056999500   0.875000000000000   1.0000000
N2   N   0.055499415693715   0.445598108523260   0.375000000000000   1.0000000
N2   N   0.221371737632874   0.941424038543603   0.375000000000000   1.0000000
N2   N   0.556511068532638   0.944922200933040   0.375000000000000   1.0000000
N2   N   0.373916808770302   0.457875088719393   0.375000000000000   1.0000000
N2   N   0.891217114671968   0.946918498830076   0.375000000000000   1.0000000
N2   N   0.734834694743073   0.443328719175274   0.375000000000000   1.0000000
N2   N   0.221759469387575   0.610860069096681   0.875000000000000   1.0000000
N2   N   0.055087665297141   0.110882503457309   0.875000000000000   1.0000000
N2   N   0.555083457978630   0.610860303505002   0.875000000000000   1.0000000
N2   N   0.388433154527975   0.110910079258348   0.875000000000000   1.0000000
N2   N   0.888383874157990   0.610858603745754   0.875000000000000   1.0000000
N2   N   0.056518400636478   0.612063040927671   0.375000000000000   1.0000000
N2   N   0.721754647446299   0.110878594322061   0.875000000000000   1.0000000
N2   N   0.215663115286276   0.101951366512882   0.375000000000000   1.0000000
N2   N   0.387702642769979   0.618433557897396   0.375000000000000   1.0000000
N2   N   0.734834694743073   0.624839308901064   0.375000000000000   1.0000000
N2   N   0.556586089076212   0.105568887686535   0.375000000000000   1.0000000
N2   N   0.388433154527975   0.610856408603077   0.875000000000000   1.0000000
N2   N   0.890631955325704   0.111982644329740   0.375000000000000   1.0000000
N2   N   0.221753606973289   0.777543470153530   0.875000000000000   1.0000000
N2   N   0.055087665297141   0.277538495173143   0.875000000000000   1.0000000
N2   N   0.388429565649604   0.277568030591914   0.875000000000000   1.0000000
N2   N   0.555092077393708   0.777536598320568   0.875000000000000   1.0000000
N2   N   0.888406037975114   0.777540314308947   0.875000000000000   1.0000000
N2   N   0.721747056420428   0.277543693532793   0.875000000000000   1.0000000
N2   N   0.056518400636478   0.777788693042476   0.375000000000000   1.0000000
N2   N   0.388549608778688   0.780071659086259   0.375000000000000   1.0000000
N2   N   0.221916156341944   0.277624744837592   0.375000000000000   1.0000000
N2   N   0.725828801706305   0.783734056740330   0.375000000000000   1.0000000
N2   N   0.557245484382977   0.265681860068816   0.375000000000000   1.0000000
N2   N   0.891217114671968   0.277631949174572   0.375000000000000   1.0000000
N2   N   0.055085799978798   0.444200614263375   0.875000000000000   1.0000000
N2   N   0.221759469387575   0.944232733624481   0.875000000000000   1.0000000
N2   N   0.555094446991295   0.944213890162231   0.875000000000000   1.0000000
N2   N   0.388429565649604   0.444194868391130   0.875000000000000   1.0000000
N2   N   0.888420550866837   0.944213380591322   0.875000000000000   1.0000000
N2   N   0.055499415693715   0.943234640503888   0.375000000000000   1.0000000
N2   N   0.721726760003618   0.444197297936702   0.875000000000000   1.0000000
N2   N   0.388549608778688   0.941811283026276   0.375000000000000   1.0000000
N2   N   0.215663115286276   0.447045082106479   0.375000000000000   1.0000000
N2   N   0.221371737632874   0.613281032422835   0.375000000000000   1.0000000
N2   N   0.724406163629354   0.947043455372170   0.375000000000000   1.0000000
N2   N   0.894753816792647   0.445038998689041   0.375000000000000   1.0000000
N2   N   0.055070295782755   0.610862337541014   0.875000000000000   1.0000000
N2   N   0.221758651180946   0.110898214067073   0.875000000000000   1.0000000
N2   N   0.721726760003618   0.610862795400408   0.875000000000000   1.0000000
N2   N   0.555092077393718   0.110888812406575   0.875000000000000   1.0000000
N2   N   0.888421437227321   0.110877385280341   0.875000000000000   1.0000000
B2   B   0.107105010422030   0.051614229519120   0.375000000000000   1.0000000
B2   B   0.629233161387086   0.591855107668074   0.375000000000000   1.0000000
B2   B   0.445386606689594   0.050240032886650   0.375000000000000   1.0000000
B2   B   0.947143930947825   0.556042605791953   0.375000000000000   1.0000000
B2   B   0.780350020246345   0.056841676789707   0.375000000000000   1.0000000
B2   B   0.110645884523286   0.721989608928085   0.875000000000000   1.0000000
B2   B   0.443989405442951   0.722045116352268   0.875000000000000   1.0000000
B2   B   0.277195190073101   0.221910421116852   0.875000000000000   1.0000000
B2   B   0.777370716248617   0.722090960278466   0.875000000000000   1.0000000
B2   B   0.610688561216391   0.221918342528256   0.875000000000000   1.0000000
B2   B   0.943944201685207   0.221956156785480   0.875000000000000   1.0000000
B2   B   0.277736689673982   0.723729629528753   0.375000000000000   1.0000000
B2   B   0.110046482029891   0.221689907681653   0.375000000000000   1.0000000
B2   B   0.443896815548822   0.209803348866985   0.375000000000000   1.0000000
B2   B   0.614657752990087   0.734459619809739   0.375000000000000   1.0000000
B2   B   0.947143930947848   0.724434658488688   0.375000000000000   1.0000000
B2   B   0.781096626699477   0.220613608173490   0.375000000000000   1.0000000
B2   B   0.110627963488117   0.888648462305004   0.875000000000000   1.0000000
B2   B   0.443998207063773   0.888665770198495   0.875000000000000   1.0000000
B2   B   0.277195190073101   0.388618102289500   0.875000000000000   1.0000000
B2   B   0.610708846722479   0.388596454315954   0.875000000000000   1.0000000
B2   B   0.777340874253974   0.888725836474013   0.875000000000000   1.0000000
B2   B   0.943982097952869   0.388620411626956   0.875000000000000   1.0000000
B2   B   0.107105010422030   0.388824114236396   0.375000000000000   1.0000000
B2   B   0.277736689673982   0.887340393478678   0.375000000000000   1.0000000
B2   B   0.613758769551155   0.893367924130274   0.375000000000000   1.0000000
B2   B   0.946955462117208   0.892026258039338   0.375000000000000   1.0000000
B2   B   0.787352890574829   0.386550728417278   0.375000000000000   1.0000000
B2   B   0.277267709854918   0.555328517767328   0.875000000000000   1.0000000
B2   B   0.110577692775139   0.055290977917188   0.875000000000000   1.0000000
B2   B   0.610708846722479   0.555445725739892   0.875000000000000   1.0000000
B2   B   0.443989405442951   0.055277622424114   0.875000000000000   1.0000000
B2   B   0.944004310975987   0.555313815321153   0.875000000000000   1.0000000
B2   B   0.110982896289463   0.556441574009498   0.375000000000000   1.0000000
B2   B   0.777320089031267   0.055326711182361   0.875000000000000   1.0000000
B2   B   0.275618959307651   0.050139280022159   0.375000000000000   1.0000000
B2   B   0.443896815548822   0.567426800015080   0.375000000000000   1.0000000
B2   B   0.783870226828708   0.558601780081237   0.375000000000000   1.0000000
B2   B   0.613758769551155   0.053724178754567   0.375000000000000   1.0000000
B2   B   0.443961333403473   0.555387944727465   0.875000000000000   1.0000000
B2   B   0.945709881967322   0.056994190094472   0.375000000000000   1.0000000
B2   B   0.277309213275975   0.721998770953799   0.875000000000000   1.0000000
B2   B   0.110542144182205   0.221937738757755   0.875000000000000   1.0000000
B2   B   0.443961333403473   0.221906722009372   0.875000000000000   1.0000000
B2   B   0.610688561216391   0.722103552021184   0.875000000000000   1.0000000
B2   B   0.944004310975987   0.722023828988679   0.875000000000000   1.0000000
B2   B   0.777340874253976   0.221948371112785   0.875000000000000   1.0000000
B2   B   0.111753892490225   0.722543612911917   0.375000000000000   1.0000000
B2   B   0.445386606689594   0.728479907136511   0.375000000000000   1.0000000
B2   B   0.265899008610051   0.208690097872183   0.375000000000000   1.0000000
B2   B   0.787352890574829   0.734135495490830   0.375000000000000   1.0000000
B2   B   0.614657752990087   0.213531466513575   0.375000000000000   1.0000000
B2   B   0.945709881967322   0.222049025206188   0.375000000000000   1.0000000
B2   B   0.110577692775139   0.388620048191131   0.875000000000000   1.0000000
B2   B   0.277309213275975   0.888643775655154   0.875000000000000   1.0000000
B2   B   0.610678993609186   0.888707287902519   0.875000000000000   1.0000000
B2   B   0.443886362357210   0.388609847845205   0.875000000000000   1.0000000
B2   B   0.943982097952869   0.888695019659078   0.875000000000000   1.0000000
B2   B   0.110982896289463   0.887874655613388   0.375000000000000   1.0000000
B2   B   0.777370716248617   0.388613089303748   0.875000000000000   1.0000000
B2   B   0.445570984900110   0.889452159116740   0.375000000000000   1.0000000
B2   B   0.265899008610051   0.390542244071314   0.375000000000000   1.0000000
B2   B   0.275618959307651   0.558813012618860   0.375000000000000   1.0000000
B2   B   0.629233161387087   0.370711387052601   0.375000000000000   1.0000000
B2   B   0.781096626699477   0.893816351858898   0.375000000000000   1.0000000
B2   B   0.946955462117208   0.388262537411224   0.375000000000000   1.0000000
B2   B   0.110627963488117   0.555312834516322   0.875000000000000   1.0000000
B2   B   0.277267709854918   0.055272525420997   0.875000000000000   1.0000000
B2   B   0.777369991771282   0.555351662552348   0.875000000000000   1.0000000
B2   B   0.610678993609186   0.055305039039863   0.875000000000000   1.0000000
B2   B   0.943944201685207   0.055321378232995   0.875000000000000   1.0000000
B2   B   0.055124173642626   0.110840129288713   0.124037743258726   1.0000000
B2   B   0.555258955414252   0.611387561025523   0.128097762597564   1.0000000
B2   B   0.388398734866783   0.110515953566435   0.125487468625007   1.0000000
B2   B   0.888972860620135   0.611153096976567   0.125102228630543   1.0000000
B2   B   0.721922545882113   0.110899390996285   0.123776572356792   1.0000000
B2   B   0.055377055946717   0.777658348577792   0.625952916516333   1.0000000
B2   B   0.388505423152419   0.777698233656976   0.626216744220719   1.0000000
B2   B   0.221563975369562   0.277448654351449   0.623590383736129   1.0000000
B2   B   0.722048679788390   0.777854740972201   0.625156694470406   1.0000000
B2   B   0.555258955414252   0.277204727722038   0.621902237402597   1.0000000
B2   B   0.888619541364052   0.277621348737976   0.626275541809911   1.0000000
B2   B   0.221906290960390   0.777619812146939   0.123804397957673   1.0000000
B2   B   0.055124173642626   0.277617377687044   0.124037743258726   1.0000000
B2   B   0.388082385914041   0.276813500771548   0.130405587821928   1.0000000
B2   B   0.555223741517104   0.777813316110958   0.124409455198856   1.0000000
B2   B   0.888809445999836   0.777781752136650   0.124356284974463   1.0000000
B2   B   0.722048679788390   0.277527272149435   0.124843305529763   1.0000000
B2   B   0.055227878495461   0.944203063552690   0.626213370080399   1.0000000
B2   B   0.388505423152419   0.944140522828812   0.626216744220719   1.0000000
B2   B   0.221660507715578   0.444419282814095   0.624778394123335   1.0000000
B2   B   0.555599525360532   0.444466429346930   0.617821656344276   1.0000000
B2   B   0.721922545882113   0.944356488219200   0.626223427643365   1.0000000
B2   B   0.888809445999836   0.444361027196303   0.625643715025454   1.0000000
B2   B   0.055227878495461   0.444358148276242   0.123786629919610   1.0000000
B2   B   0.221837080504867   0.944092701509739   0.124074249382794   1.0000000
B2   B   0.555214297868731   0.944273815601177   0.123603793753895   1.0000000
B2   B   0.388082385914041   0.444602218475841   0.130405587821928   1.0000000
B2   B   0.888619541364052   0.944331525959725   0.123724458189813   1.0000000
B2   B   0.722453727863899   0.444423707291187   0.127318071459817   1.0000000
B2   B   0.221837080504867   0.611077712328398   0.625925750617231   1.0000000
B2   B   0.055124173642626   0.110840129288713   0.625962256740920   1.0000000
B2   B   0.555258955414252   0.611387561025523   0.621902237402597   1.0000000
B2   B   0.388398734866783   0.110515953566435   0.624512531375030   1.0000000
B2   B   0.888972860620135   0.611153096976567   0.624897771369724   1.0000000
B2   B   0.055377055946718   0.611052040702450   0.124047083483786   1.0000000
B2   B   0.721922545882113   0.110899390996285   0.626223427643365   1.0000000
B2   B   0.221660507715578   0.110574558234805   0.125221605876662   1.0000000
B2   B   0.388398734866783   0.611216114633817   0.125487468625007   1.0000000
B2   B   0.722453727863899   0.611363353906130   0.127318071459820   1.0000000
B2   B   0.555223741517104   0.110743758739524   0.124409455198856   1.0000000
B2   B   0.388398734866783   0.611216114633817   0.624512531375030   1.0000000
B2   B   0.888555536461849   0.110944434897758   0.123698382985521   1.0000000
B2   B   0.221906290960390   0.777619812146939   0.626195602042173   1.0000000
B2   B   0.055124173642626   0.277617377687044   0.625962256740920   1.0000000
B2   B   0.388082385914041   0.276813500771548   0.619594412177914   1.0000000
B2   B   0.555223741517104   0.777813316110958   0.625590544800813   1.0000000
B2   B   0.888809445999836   0.777781752136650   0.625643715025454   1.0000000
B2   B   0.722048679788390   0.277527272149435   0.625156694470406   1.0000000
B2   B   0.055377055946718   0.777658348577792   0.124047083483786   1.0000000
B2   B   0.388505423152419   0.777698233656976   0.123783255779272   1.0000000
B2   B   0.221563975369562   0.277448654351449   0.126409616263883   1.0000000
B2   B   0.722048679788390   0.777854740972201   0.124843305529763   1.0000000
B2   B   0.555258955414252   0.277204727722038   0.128097762597570   1.0000000
B2   B   0.888619541364052   0.277621348737976   0.123724458189813   1.0000000
B2   B   0.055227878495461   0.444358148276242   0.626213370080399   1.0000000
B2   B   0.221837080504867   0.944092701509739   0.625925750617231   1.0000000
B2   B   0.555214297868731   0.944273815601177   0.626396206245847   1.0000000
B2   B   0.388082385914041   0.444602218475841   0.619594412177914   1.0000000
B2   B   0.888619541364052   0.944331525959725   0.626275541809911   1.0000000
B2   B   0.055227878495461   0.944203063552690   0.123786629919610   1.0000000
B2   B   0.722453727863899   0.444423707291187   0.622681928540108   1.0000000
B2   B   0.388505423152419   0.944140522828812   0.123783255779272   1.0000000
B2   B   0.221660507715578   0.444419282814095   0.125221605876662   1.0000000
B2   B   0.221837080504867   0.611077712328398   0.124074249382796   1.0000000
B2   B   0.555599525360532   0.444466429346930   0.132178343655764   1.0000000
B2   B   0.721922545882113   0.944356488219200   0.123776572356792   1.0000000
B2   B   0.888809445999836   0.444361027196303   0.124356284974463   1.0000000
B2   B   0.055377055946717   0.611052040702450   0.625952916516333   1.0000000
B2   B   0.221660507715578   0.110574558234805   0.624778394123335   1.0000000
B2   B   0.722453727863899   0.611363353906130   0.622681928540175   1.0000000
B2   B   0.555223741517103   0.110743758739524   0.625590544800813   1.0000000
B2   B   0.888555536461849   0.110944434897758   0.626301617014026   1.0000000


