data_1
_audit_creation_method   'vasp2cif'
_cell_length_a    17.52789999999977
_cell_length_b    17.52789999999977
_cell_length_c    15.0
_cell_angle_alpha    90.0
_cell_angle_beta    90.0
_cell_angle_gamma    119.99999999999916

_symmetry_space_group_name_H-M    'P 1'
loop_
_atom_site_label
_atom_site_type_symbol
_atom_site_fract_x
_atom_site_fract_y
_atom_site_fract_z
_atom_site_occupancy
B2   B   0.904576627893010   0.952128364901918   0.110027615673595   1.0000000
B2   B   0.904875561777891   0.095126459418103   0.110372922106509   1.0000000
B2   B   0.904954024670431   0.238012291354234   0.110852809142242   1.0000000
B2   B   0.904858921688407   0.380842525394370   0.111263233313084   1.0000000
B2   B   0.904394915166181   0.523584844477903   0.111089660822081   1.0000000
B2   B   0.904246668281339   0.666355513450478   0.109643579904986   1.0000000
B2   B   0.904359014877248   0.809219724813624   0.109767762252458   1.0000000
B2   B   0.047582834236539   0.952419186959468   0.110204143964876   1.0000000
B2   B   0.047873656294089   0.095425393302974   0.110027615673595   1.0000000
B2   B   0.047937526013523   0.238195505567220   0.110276313385650   1.0000000
B2   B   0.047900651266916   0.380962690944799   0.110574148165328   1.0000000
B2   B   0.047651815111950   0.523739379197073   0.110678807780496   1.0000000
B2   B   0.047362455025906   0.666572014860056   0.110503735888818   1.0000000
B2   B   0.047414898333613   0.809477260306805   0.110224983208593   1.0000000
B2   B   0.190524760889206   0.952587122862391   0.110224983208593   1.0000000
B2   B   0.190782296382380   0.095643006318748   0.109767762252458   1.0000000
B2   B   0.191175576026337   0.238820772500496   0.109653616383514   1.0000000
B2   B   0.190956898985212   0.381091448204415   0.110822838951033   1.0000000
B2   B   0.190915237773082   0.523859014548118   0.110907673239090   1.0000000
B2   B   0.190343454260423   0.666687866791222   0.110875638747611   1.0000000
B2   B   0.190384620811295   0.809617400384709   0.110528095317464   1.0000000
B2   B   0.333430006336945   0.952639566170100   0.110503735888818   1.0000000
B2   B   0.333646507746510   0.095755352914663   0.109643579904986   1.0000000
B2   B   0.333861087680931   0.238819017192246   0.108084706437641   1.0000000
B2   B   0.334652017332265   0.381766059159513   0.112203382626570   1.0000000
B2   B   0.334172689103746   0.524375204003031   0.114233598686465   1.0000000
B2   B   0.333194292055908   0.666807729141089   0.112638139693283   1.0000000
B2   B   0.333314154405778   0.809658566935581   0.110875638747611   1.0000000
B2   B   0.476262641999927   0.952350206084060   0.110678807780496   1.0000000
B2   B   0.476417176719093   0.095607106029816   0.111089660822081   1.0000000
B2   B   0.476690266115497   0.238955900393470   0.110623683461563   1.0000000
B2   B   0.476048137402919   0.380393199231037   0.100287861431565   1.0000000
B2   B   0.475626817193967   0.665829332093253   0.114233598686465   1.0000000
B2   B   0.476143006648884   0.809086783422922   0.110907673239090   1.0000000
B2   B   0.619039330251204   0.952101369929080   0.110574148165328   1.0000000
B2   B   0.619159495801630   0.095143099507590   0.111263233313084   1.0000000
B2   B   0.619370285242780   0.238172264272615   0.112584540888846   1.0000000
B2   B   0.619253460498826   0.380748560697177   0.113801814078188   1.0000000
B2   B   0.619608821964963   0.523953883794079   0.100287861431565   1.0000000
B2   B   0.618235962036492   0.665350003864738   0.112203382626570   1.0000000
B2   B   0.618910572991590   0.809045122210791   0.110822838951033   1.0000000
B2   B   0.761806515628786   0.952064495182471   0.110276313385650   1.0000000
B2   B   0.761989729841768   0.095047996525564   0.110852809142242   1.0000000
B2   B   0.762051223281360   0.237950797914648   0.111834693145941   1.0000000
B2   B   0.761829756923391   0.380631735953223   0.112584540888846   1.0000000
B2   B   0.761046120802531   0.523311755081499   0.110623683461563   1.0000000
B2   B   0.761183004003756   0.666140933516070   0.108084706437641   1.0000000
B2   B   0.761181248695509   0.808826445169669   0.109653616383514   1.0000000
N2   N   0.952199340098344   0.904552280787350   0.110087341546244   1.0000000
N2   N   0.952487409398827   0.047513992519181   0.110172225502531   1.0000000
N2   N   0.952655458549105   0.190441916152753   0.110477503495745   1.0000000
N2   N   0.952676729039585   0.333323643041712   0.110820575673729   1.0000000
N2   N   0.952375017174064   0.476137700978883   0.111002331989469   1.0000000
N2   N   0.952058635495691   0.618889459137426   0.110440228747985   1.0000000
N2   N   0.952036232724981   0.761685636880455   0.109832511096488   1.0000000
N2   N   0.095198314007922   0.904803087910070   0.110305920994678   1.0000000
N2   N   0.095449121130647   0.047802061819663   0.110087341546244   1.0000000
N2   N   0.095797181448311   0.190872407013417   0.109858126744908   1.0000000
N2   N   0.095745198127710   0.333519601887280   0.110445700428344   1.0000000
N2   N   0.095655935248620   0.476259490252249   0.110511640230170   1.0000000
N2   N   0.095165745756700   0.619020697002513   0.110617079155220   1.0000000
N2   N   0.095088402136887   0.761873601008690   0.110399383534660   1.0000000
N2   N   0.238127800909305   0.904912999781110   0.110399383534660   1.0000000
N2   N   0.238315765037555   0.047965169193022   0.109832511096487   1.0000000
N2   N   0.238670617342496   0.191142371355589   0.109287418777581   1.0000000
N2   N   0.239296551252345   0.334420284767401   0.110727472177680   1.0000000
N2   N   0.239163581341532   0.476396184577523   0.111117234395018   1.0000000
N2   N   0.238144572389998   0.619058642534737   0.111372628889048   1.0000000
N2   N   0.238053563574826   0.761947838343183   0.110780106352604   1.0000000
N2   N   0.380980704915479   0.904835656161300   0.110617079155220   1.0000000
N2   N   0.381111942780566   0.047942766422315   0.110440228747985   1.0000000
N2   N   0.381380606178173   0.191198470916053   0.108700612753949   1.0000000
N2   N   0.381811211006893   0.334646414755469   0.106642932755282   1.0000000
N2   N   0.383867817621650   0.477874238384404   0.117442542363735   1.0000000
N2   N   0.380906228817826   0.619095173100173   0.115261818939078   1.0000000
N2   N   0.380942759383262   0.761856829528006   0.111372628889048   1.0000000
N2   N   0.523741911664757   0.904345466669379   0.110511640230170   1.0000000
N2   N   0.523863700938115   0.047626384743942   0.111002331989469   1.0000000
N2   N   0.524018758284656   0.190958428851695   0.111845777737706   1.0000000
N2   N   0.524453984574232   0.334742664490610   0.110623124995631   1.0000000
N2   N   0.522127163532591   0.616133584296346   0.117442542363735   1.0000000
N2   N   0.523605217339476   0.760837820576473   0.111117234395018   1.0000000
N2   N   0.666481800029718   0.904256203790288   0.110445700428344   1.0000000
N2   N   0.666677758875280   0.047324672878423   0.110820575673729   1.0000000
N2   N   0.666822610674523   0.190300624513792   0.111986464437791   1.0000000
N2   N   0.666888489990827   0.333112911926173   0.113923281420577   1.0000000
N2   N   0.665258737426386   0.475547417342772   0.110623124995631   1.0000000
N2   N   0.665354987161528   0.618190190911111   0.106642932755282   1.0000000
N2   N   0.665581117149599   0.760704850665663   0.110727472177680   1.0000000
N2   N   0.809128994904584   0.904204220469691   0.109858126744908   1.0000000
N2   N   0.809559485765236   0.047345943368898   0.110477503495745   1.0000000
N2   N   0.809703469380631   0.190297932537367   0.111179145898037   1.0000000
N2   N   0.809700777404215   0.333178791242477   0.111986464437791   1.0000000
N2   N   0.809042973066306   0.475982643632353   0.111845777737706   1.0000000
N2   N   0.808802931001935   0.618620795739833   0.108700612753949   1.0000000
N2   N   0.808859030562409   0.761330784575509   0.109287418777581   1.0000000
C2   C   0.474060137405761   0.525941883791233   0.136570071261542   1.0000000
O2   O   0.521790641799040   0.478210760117957   0.123549976689476   1.0000000


