data_1
_audit_creation_method   'vasp2cif'
_cell_length_a    17.52789999999977
_cell_length_b    17.52789999999977
_cell_length_c    15.0
_cell_angle_alpha    90.0
_cell_angle_beta    90.0
_cell_angle_gamma    119.99999999999916

_symmetry_space_group_name_H-M    'P 1'
loop_
_atom_site_label
_atom_site_type_symbol
_atom_site_fract_x
_atom_site_fract_y
_atom_site_fract_z
_atom_site_occupancy
B2   B   0.905064516006978   0.952698012005839   0.111098100847870   1.0000000
B2   B   0.904744497355888   0.095013095776994   0.111103079493544   1.0000000
B2   B   0.904577029671694   0.237545023790085   0.111059143262678   1.0000000
B2   B   0.904290988978853   0.380172507523131   0.111141753433504   1.0000000
B2   B   0.904882894391463   0.523287127804326   0.111086565494415   1.0000000
B2   B   0.905848967003942   0.666918835926757   0.111073989391936   1.0000000
B2   B   0.905884159400146   0.810405232880547   0.111075531113681   1.0000000
B2   B   0.048030889280418   0.952827621559646   0.111087258483593   1.0000000
B2   B   0.048004674479371   0.095469906153017   0.110911607213473   1.0000000
B2   B   0.047778120036076   0.237781159108914   0.110950239082723   1.0000000
B2   B   0.047422583639640   0.380418640997383   0.111155873169789   1.0000000
B2   B   0.047166223328372   0.523411856440475   0.111119606815935   1.0000000
B2   B   0.047493878879441   0.666635097705048   0.111008983837304   1.0000000
B2   B   0.047874353228752   0.809797229265211   0.111089917588528   1.0000000
B2   B   0.190389613269590   0.952507738304180   0.111157403205186   1.0000000
B2   B   0.190810423316188   0.095504489426440   0.111123723739608   1.0000000
B2   B   0.191330858353067   0.238249953870095   0.110999069673882   1.0000000
B2   B   0.190689310887408   0.380348902021248   0.111109683996648   1.0000000
B2   B   0.189591990290425   0.523564858111515   0.111154008578276   1.0000000
B2   B   0.189480303486061   0.666722355388649   0.110873885288911   1.0000000
B2   B   0.190135984795436   0.809696384781849   0.110876630944477   1.0000000
B2   B   0.333009914130877   0.952400434600864   0.111156780166056   1.0000000
B2   B   0.333165720938082   0.094970537004603   0.111197274401375   1.0000000
B2   B   0.334869677248350   0.238547885955883   0.110985529308304   1.0000000
B2   B   0.335698281587026   0.379364998243024   0.110860121349686   1.0000000
B2   B   0.331597201922852   0.524795302088769   0.110976639093670   1.0000000
B2   B   0.331295664956382   0.667168361651373   0.111016163885872   1.0000000
B2   B   0.332604363343473   0.809825211434098   0.110857521224632   1.0000000
B2   B   0.475736945690263   0.952453263349193   0.110957130669728   1.0000000
B2   B   0.475849862347705   0.094946874427828   0.111042212309502   1.0000000
B2   B   0.475557818222251   0.238463351872283   0.110961443986487   1.0000000
B2   B   0.472786342676530   0.667588846938995   0.110887866238154   1.0000000
B2   B   0.475318599435538   0.810080565977904   0.111015149537173   1.0000000
B2   B   0.618571191350286   0.952134182436028   0.111100517419439   1.0000000
B2   B   0.618665344000663   0.094673411982799   0.110960254382222   1.0000000
B2   B   0.618090422473776   0.236836204420582   0.110942857623710   1.0000000
B2   B   0.613658857857651   0.375937225492991   0.111004632170997   1.0000000
B2   B   0.639092864136310   0.533461020984563   0.110888861916318   1.0000000
B2   B   0.619811777205446   0.667852835929869   0.110867481785349   1.0000000
B2   B   0.618065989607858   0.809326791037882   0.111179285502349   1.0000000
B2   B   0.761595983646645   0.952210502109302   0.111243202226766   1.0000000
B2   B   0.761635884442520   0.094767926700603   0.111112944140196   1.0000000
B2   B   0.761380099345777   0.237184145469441   0.111089878891931   1.0000000
B2   B   0.760645526169557   0.379264444215087   0.111045837754090   1.0000000
B2   B   0.763890819748643   0.523475026936783   0.111004836700254   1.0000000
B2   B   0.765750601384217   0.668972282908723   0.110970314366034   1.0000000
B2   B   0.762224122612748   0.810227151673304   0.111136886481944   1.0000000
C2   C   0.468697469905634   0.527936512231651   0.110627952453502   1.0000000
C2   C   0.521004812264895   0.615333183796003   0.110541152936120   1.0000000
N2   N   0.952584753173138   0.904973719045908   0.111088546270309   1.0000000
N2   N   0.952446375424750   0.047558153435214   0.111019907592876   1.0000000
N2   N   0.952342867085462   0.190143776031385   0.110998339265876   1.0000000
N2   N   0.952151920015899   0.332862458325224   0.111080775383286   1.0000000
N2   N   0.951981751360419   0.475633836420720   0.111161304202501   1.0000000
N2   N   0.952162824206353   0.618625550776027   0.111039420362175   1.0000000
N2   N   0.952399703972305   0.761821809297006   0.111063402271852   1.0000000
N2   N   0.094949047448322   0.904609722163484   0.111163755749800   1.0000000
N2   N   0.095208282703691   0.047614749843187   0.110950861887897   1.0000000
N2   N   0.095490419557246   0.190553943470372   0.110786856527186   1.0000000
N2   N   0.095294627277101   0.333095322341288   0.111103954442517   1.0000000
N2   N   0.094617671271797   0.475788945603449   0.111175126298300   1.0000000
N2   N   0.094429722855117   0.618705103738801   0.110973572681927   1.0000000
N2   N   0.094789582641359   0.761696208265083   0.110992469551464   1.0000000
N2   N   0.237612679001992   0.904514899412418   0.111029050953997   1.0000000
N2   N   0.237608799385981   0.047102930504645   0.111210552243895   1.0000000
N2   N   0.238026902182850   0.190214702157767   0.111139725751276   1.0000000
N2   N   0.239012198878997   0.333834511153339   0.111034012117102   1.0000000
N2   N   0.237334338790367   0.475974524913661   0.111159904399364   1.0000000
N2   N   0.236598397028378   0.618868813211654   0.110981925126468   1.0000000
N2   N   0.237325757356175   0.761797698861690   0.110640343201206   1.0000000
N2   N   0.380466890901230   0.904626385782965   0.110995518695257   1.0000000
N2   N   0.380575781269878   0.046922155647188   0.111359268807336   1.0000000
N2   N   0.380217096800209   0.188823884159583   0.110878620211836   1.0000000
N2   N   0.378829014250886   0.331086106101260   0.110799692638872   1.0000000
N2   N   0.381490112087254   0.477403928343259   0.110680224902729   1.0000000
N2   N   0.378381975218155   0.619306994369268   0.111033296161634   1.0000000
N2   N   0.379968630281109   0.762103809898100   0.110924082597605   1.0000000
N2   N   0.523373528302891   0.904839166760950   0.110985696132215   1.0000000
N2   N   0.523596162305086   0.047184254843775   0.110854962664447   1.0000000
N2   N   0.523467950188768   0.189455935806378   0.110880941162294   1.0000000
N2   N   0.522837845024735   0.330843785887020   0.111088480467893   1.0000000
N2   N   0.522754699601447   0.762419596438065   0.111030366814206   1.0000000
N2   N   0.666221791131299   0.904281278635902   0.111257417043724   1.0000000
N2   N   0.666488147872324   0.047088372026581   0.110996318069495   1.0000000
N2   N   0.666502475834696   0.189671381585688   0.111041982961499   1.0000000
N2   N   0.666110570732856   0.332245171535271   0.110912538873506   1.0000000
N2   N   0.666107952767957   0.474225237016213   0.110971038004420   1.0000000
N2   N   0.668796980116952   0.620935374763496   0.110838083183723   1.0000000
N2   N   0.666854789896179   0.761997370007200   0.111200025479221   1.0000000
N2   N   0.809574677194716   0.904754372178079   0.111160971727996   1.0000000
N2   N   0.809358410665551   0.047178720760302   0.111212761523265   1.0000000
N2   N   0.809394613808065   0.189909555422709   0.111017778557313   1.0000000
N2   N   0.809125957330626   0.332614726886943   0.111135183673009   1.0000000
N2   N   0.809426111436503   0.475398298782460   0.111004940570930   1.0000000
N2   N   0.810098574130088   0.618803199174471   0.111010701585969   1.0000000
N2   N   0.810333709470674   0.762648646259773   0.110970958735508   1.0000000


