data_1
_audit_creation_method   'vasp2cif'
_cell_length_a    14.93631414619966
_cell_length_b    14.936314146199727
_cell_length_c    13.341276283792837
_cell_angle_alpha    90.0
_cell_angle_beta    90.0
_cell_angle_gamma    119.99999999999984

_symmetry_space_group_name_H-M    'P 1'
loop_
_atom_site_label
_atom_site_type_symbol
_atom_site_fract_x
_atom_site_fract_y
_atom_site_fract_z
_atom_site_occupancy
S2   S   0.405246661836339   0.369289997584835   0.375000000000000   1.0000000
S2   S   0.551925498411100   0.442629415872212   0.375000000000000   1.0000000
N2   N   0.111808071469148   0.055926498356425   0.125282031260992   1.0000000
N2   N   0.611944528184277   0.556064140747656   0.122909732307325   1.0000000
N2   N   0.445118721168800   0.055886328328958   0.125170719968071   1.0000000
N2   N   0.945060240510462   0.555842230354668   0.125049836141403   1.0000000
N2   N   0.778459548025342   0.055896440679337   0.124777537265406   1.0000000
N2   N   0.111717423440584   0.722525378386957   0.624990626017943   1.0000000
N2   N   0.445118721168800   0.722565726173170   0.624829280031920   1.0000000
N2   N   0.278547793640069   0.222615233132363   0.624647907015949   1.0000000
N2   N   0.778471654507090   0.722672291824235   0.625301407064515   1.0000000
N2   N   0.611825862569324   0.222501101314277   0.625240339889726   1.0000000
N2   N   0.945140935861811   0.222543547036613   0.625102371822420   1.0000000
N2   N   0.278407877788870   0.722530144614830   0.125096879561066   1.0000000
N2   N   0.111842843596459   0.222588088464891   0.125415673226048   1.0000000
N2   N   0.445223259328601   0.222620858666452   0.124753551932634   1.0000000
N2   N   0.611825862569324   0.722658094588392   0.124759660110266   1.0000000
N2   N   0.945060240510462   0.722551343489130   0.125049836141403   1.0000000
N2   N   0.778467838645729   0.222485432066417   0.124794556388671   1.0000000
N2   N   0.111747029818679   0.889223962920951   0.624907446387117   1.0000000
N2   N   0.445084645713425   0.889208989523380   0.624961994209131   1.0000000
N2   N   0.278547793640069   0.389265893841048   0.624647907015949   1.0000000
N2   N   0.611944528184277   0.389213720769963   0.627090267692666   1.0000000
N2   N   0.778467838645729   0.889315739912637   0.625205443611331   1.0000000
N2   N   0.945112775591377   0.389171497197446   0.625010898523758   1.0000000
N2   N   0.111808071469149   0.389214906446059   0.125282031260992   1.0000000
N2   N   0.278407877788870   0.889211066507375   0.125096879561066   1.0000000
N2   N   0.611775303067395   0.889253259765640   0.124937495958990   1.0000000
N2   N   0.445412324366192   0.389372828849762   0.121646930051078   1.0000000
N2   N   0.945112775591377   0.889274611727251   0.124989101476249   1.0000000
N2   N   0.778471654507090   0.389132696016187   0.124698592935475   1.0000000
N2   N   0.278471093181853   0.555883973827904   0.624573600314972   1.0000000
N2   N   0.111808071469149   0.055926498356426   0.624717968738997   1.0000000
N2   N   0.611944528184277   0.556064140747656   0.627090267692666   1.0000000
N2   N   0.445118721168800   0.055886328328958   0.624829280031920   1.0000000
N2   N   0.945060240510462   0.555842230354668   0.624950163858611   1.0000000
N2   N   0.111747029818679   0.555856400231058   0.125092553612874   1.0000000
N2   N   0.778459548025342   0.055896440679337   0.625222462734592   1.0000000
N2   N   0.278471093181853   0.055920452687291   0.125426399685022   1.0000000
N2   N   0.445223259328601   0.555935733995473   0.124753551932634   1.0000000
N2   N   0.778440144561253   0.555886738947285   0.124587595683767   1.0000000
N2   N   0.611775303067395   0.055855376635061   0.124937495958990   1.0000000
N2   N   0.445223259328601   0.555935733995473   0.625246448067368   1.0000000
N2   N   0.945140935861811   0.055930722158544   0.124897628177573   1.0000000
N2   N   0.278407877788870   0.722530144614830   0.624903120438946   1.0000000
N2   N   0.111842843596459   0.222588088464891   0.624584326773948   1.0000000
N2   N   0.445223259328601   0.222620858666452   0.625246448067368   1.0000000
N2   N   0.611825862569324   0.722658094588392   0.625240339889726   1.0000000
N2   N   0.945060240510462   0.722551343489130   0.624950163858611   1.0000000
N2   N   0.778467838645729   0.222485432066422   0.625205443611331   1.0000000
N2   N   0.111717423440584   0.722525378386957   0.125009373982076   1.0000000
N2   N   0.445118721168800   0.722565726173170   0.125170719968071   1.0000000
N2   N   0.278547793640069   0.222615233132363   0.125352092984047   1.0000000
N2   N   0.778471654507090   0.722672291824235   0.124698592935475   1.0000000
N2   N   0.611825862569324   0.222501101314277   0.124759660110266   1.0000000
N2   N   0.945140935861811   0.222543547036613   0.124897628177573   1.0000000
N2   N   0.111808071469149   0.389214906446059   0.624717968738997   1.0000000
N2   N   0.278407877788870   0.889211066507375   0.624903120438946   1.0000000
N2   N   0.611775303067395   0.889253259765640   0.625062504040999   1.0000000
N2   N   0.445412324366192   0.389372828849762   0.628353069948934   1.0000000
N2   N   0.945112775591377   0.889274611727251   0.625010898523758   1.0000000
N2   N   0.111747029818679   0.889223962920951   0.125092553612874   1.0000000
N2   N   0.778471654507090   0.389132696016187   0.625301407064515   1.0000000
N2   N   0.445084645713425   0.889208989523380   0.125038005790867   1.0000000
N2   N   0.278547793640069   0.389265893841048   0.125352092984047   1.0000000
N2   N   0.278471093181853   0.555883973827893   0.125426399685022   1.0000000
N2   N   0.611944528184277   0.389213720769963   0.122909732307326   1.0000000
N2   N   0.778467838645729   0.889315739912637   0.124794556388671   1.0000000
N2   N   0.945112775591377   0.389171497197446   0.124989101476249   1.0000000
N2   N   0.111747029818679   0.555856400231058   0.624907446387117   1.0000000
N2   N   0.278471093181853   0.055920452687291   0.624573600314972   1.0000000
N2   N   0.778440144561253   0.555886738947285   0.625412404316241   1.0000000
N2   N   0.611775303067395   0.055855376635062   0.625062504040999   1.0000000
N2   N   0.945140935861811   0.055930722158544   0.625102371822420   1.0000000
N2   N   0.056976359357672   0.111499064129188   0.375000000000000   1.0000000
N2   N   0.555175595913061   0.623409253564267   0.375000000000000   1.0000000
N2   N   0.385767864657432   0.096256632089909   0.375000000000000   1.0000000
N2   N   0.886323556443443   0.609828444888399   0.375000000000000   1.0000000
N2   N   0.724139681098548   0.110782347401536   0.375000000000000   1.0000000
N2   N   0.055450483105951   0.777723859740125   0.875000000000000   1.0000000
N2   N   0.388775990138785   0.777722016437993   0.875000000000000   1.0000000
N2   N   0.222118037271641   0.277725685302489   0.875000000000000   1.0000000
N2   N   0.722107561160709   0.777719674224653   0.875000000000000   1.0000000
N2   N   0.555438960871275   0.277720046349584   0.875000000000000   1.0000000
N2   N   0.888784639178806   0.277731173135395   0.875000000000000   1.0000000
N2   N   0.218538954274116   0.775936143803734   0.375000000000000   1.0000000
N2   N   0.056976359357673   0.278810628561825   0.375000000000000   1.0000000
N2   N   0.382720108930350   0.246495538642959   0.375000000000000   1.0000000
N2   N   0.555762519723082   0.783855700295047   0.375000000000000   1.0000000
N2   N   0.888716168225966   0.778460857839884   0.375000000000000   1.0000000
N2   N   0.723882316730879   0.275383155318105   0.375000000000000   1.0000000
N2   N   0.055449983420783   0.944386717234872   0.875000000000000   1.0000000
N2   N   0.388775990138785   0.944387307034138   0.875000000000000   1.0000000
N2   N   0.222114105317478   0.444396486209484   0.875000000000000   1.0000000
N2   N   0.555458937151466   0.444396135242397   0.875000000000000   1.0000000
N2   N   0.722104217619566   0.944384948790091   0.875000000000000   1.0000000
N2   N   0.888788451543830   0.444398720791840   0.875000000000000   1.0000000
N2   N   0.053354670056488   0.445012975217988   0.375000000000000   1.0000000
N2   N   0.218446196181119   0.938636829664596   0.375000000000000   1.0000000
N2   N   0.555891746029612   0.944612539681462   0.375000000000000   1.0000000
N2   N   0.382720108930350   0.469557903620734   0.375000000000000   1.0000000
N2   N   0.890318376813168   0.946035147204755   0.375000000000000   1.0000000
N2   N   0.724441607391318   0.442316562910423   0.375000000000000   1.0000000
N2   N   0.222112498743071   0.611059178798380   0.875000000000000   1.0000000
N2   N   0.055454128862475   0.111057045886018   0.875000000000000   1.0000000
N2   N   0.555438960871275   0.611052247855035   0.875000000000000   1.0000000
N2   N   0.388774551590278   0.111052125471716   0.875000000000000   1.0000000
N2   N   0.888791967565287   0.611062650449306   0.875000000000000   1.0000000
N2   N   0.052299749888261   0.610284050992372   0.375000000000000   1.0000000
N2   N   0.722104217619566   0.111052602162802   0.875000000000000   1.0000000
N2   N   0.217335817705928   0.101874411277407   0.375000000000000   1.0000000
N2   N   0.385767864657432   0.622844565900869   0.375000000000000   1.0000000
N2   N   0.724441607391318   0.615458377814241   0.375000000000000   1.0000000
N2   N   0.555762519723082   0.105240152761372   0.375000000000000   1.0000000
N2   N   0.388774551590278   0.611055759451883   0.875000000000000   1.0000000
N2   N   0.891028830154991   0.112181081744170   0.375000000000000   1.0000000
N2   N   0.222113669285428   0.777723501309386   0.875000000000000   1.0000000
N2   N   0.055454128862475   0.277730416309783   0.875000000000000   1.0000000
N2   N   0.388772096580905   0.277713022456771   0.875000000000000   1.0000000
N2   N   0.555436787207071   0.777718121404273   0.875000000000000   1.0000000
N2   N   0.888788451543830   0.777723064085332   0.875000000000000   1.0000000
N2   N   0.722107561160709   0.277721220269379   0.875000000000000   1.0000000
N2   N   0.052299749888260   0.775349032229208   0.375000000000000   1.0000000
N2   N   0.386422203550233   0.780613322788564   0.375000000000000   1.0000000
N2   N   0.224625143969512   0.278979238651423   0.375000000000000   1.0000000
N2   N   0.723882316730879   0.781832494746102   0.375000000000000   1.0000000
N2   N   0.555175595913060   0.265099675682137   0.375000000000000   1.0000000
N2   N   0.890318376813168   0.277616562941746   0.375000000000000   1.0000000
N2   N   0.055449983420783   0.444396599519250   0.875000000000000   1.0000000
N2   N   0.222112498743071   0.944386653278032   0.875000000000000   1.0000000
N2   N   0.555436694379901   0.944385013856617   0.875000000000000   1.0000000
N2   N   0.388772096580905   0.444392407457462   0.875000000000000   1.0000000
N2   N   0.888784639178806   0.944386799376745   0.875000000000000   1.0000000
N2   N   0.053354670056488   0.941675028171848   0.375000000000000   1.0000000
N2   N   0.722125899141280   0.444396580128015   0.875000000000000   1.0000000
N2   N   0.386422203550233   0.939142214094995   0.375000000000000   1.0000000
N2   N   0.217335817705928   0.448794739761870   0.375000000000000   1.0000000
N2   N   0.218446196181119   0.613142699849851   0.375000000000000   1.0000000
N2   N   0.724139681098548   0.946690667030350   0.375000000000000   1.0000000
N2   N   0.888716168225966   0.443588643719432   0.375000000000000   1.0000000
N2   N   0.055450483105951   0.611059956699155   0.875000000000000   1.0000000
N2   N   0.222114105317478   0.111050952441335   0.875000000000000   1.0000000
N2   N   0.722125899141280   0.611062652346596   0.875000000000000   1.0000000
N2   N   0.555436787207071   0.111051999136133   0.875000000000000   1.0000000
N2   N   0.888784198813334   0.111058766073341   0.875000000000000   1.0000000
B2   B   0.108433218479911   0.051776012520125   0.375000000000000   1.0000000
B2   B   0.614189250599541   0.572945570488765   0.375000000000000   1.0000000
B2   B   0.444257078062526   0.047447480591266   0.375000000000000   1.0000000
B2   B   0.941843047574554   0.554351577928627   0.375000000000000   1.0000000
B2   B   0.780261736816822   0.056797535075075   0.375000000000000   1.0000000
B2   B   0.111004234305629   0.722168783819486   0.875000000000000   1.0000000
B2   B   0.444328683583689   0.722128599513968   0.875000000000000   1.0000000
B2   B   0.277725990936504   0.222212546260659   0.875000000000000   1.0000000
B2   B   0.777632313430869   0.722126242971949   0.875000000000000   1.0000000
B2   B   0.610966472419591   0.222193541936695   0.875000000000000   1.0000000
B2   B   0.944357314303027   0.222183328143327   0.875000000000000   1.0000000
B2   B   0.275384657338723   0.723196185285023   0.375000000000000   1.0000000
B2   B   0.113576377220773   0.223454855277055   0.375000000000000   1.0000000
B2   B   0.443984884956640   0.204400971566463   0.375000000000000   1.0000000
B2   B   0.612519610070078   0.730744382067719   0.375000000000000   1.0000000
B2   B   0.941843047574554   0.720824802979278   0.375000000000000   1.0000000
B2   B   0.779673611058265   0.221421425083916   0.375000000000000   1.0000000
B2   B   0.111015011269303   0.888847397353231   0.875000000000000   1.0000000
B2   B   0.444329835873760   0.888831584603539   0.875000000000000   1.0000000
B2   B   0.277725990936504   0.388846778009180   0.875000000000000   1.0000000
B2   B   0.610964542566845   0.388842342779704   0.875000000000000   1.0000000
B2   B   0.777647407140144   0.888801941858870   0.875000000000000   1.0000000
B2   B   0.944334861830352   0.388842760731960   0.875000000000000   1.0000000
B2   B   0.108433218479911   0.389990539293111   0.375000000000000   1.0000000
B2   B   0.275384657338723   0.885521805387044   0.375000000000000   1.0000000
B2   B   0.612997830112864   0.892393077724321   0.375000000000000   1.0000000
B2   B   0.943610334457623   0.888538569773914   0.375000000000000   1.0000000
B2   B   0.778794000963101   0.387016495816472   0.375000000000000   1.0000000
B2   B   0.277693784263339   0.555486012848473   0.875000000000000   1.0000000
B2   B   0.111044439392167   0.055529215491254   0.875000000000000   1.0000000
B2   B   0.610964542566845   0.555455533120476   0.875000000000000   1.0000000
B2   B   0.444328683583689   0.055533417403050   0.875000000000000   1.0000000
B2   B   0.944316608294356   0.555495484723995   0.875000000000000   1.0000000
B2   B   0.108121082544458   0.555785825587984   0.375000000000000   1.0000000
B2   B   0.777657688935242   0.055495511134284   0.875000000000000   1.0000000
B2   B   0.275250968384156   0.048087333809225   0.375000000000000   1.0000000
B2   B   0.443984884956640   0.572917246723507   0.375000000000000   1.0000000
B2   B   0.775535210563581   0.554434271948455   0.375000000000000   1.0000000
B2   B   0.612997830112864   0.053938085721865   0.375000000000000   1.0000000
B2   B   0.444330772955386   0.555450697443662   0.875000000000000   1.0000000
B2   B   0.946371314667705   0.056808856163276   0.375000000000000   1.0000000
B2   B   0.277677777871530   0.722159713330819   0.875000000000000   1.0000000
B2   B   0.111066566118814   0.222199949726074   0.875000000000000   1.0000000
B2   B   0.444330772955386   0.222213408845064   0.875000000000000   1.0000000
B2   B   0.610966472419591   0.722106263816220   0.875000000000000   1.0000000
B2   B   0.944316608294356   0.722154456903687   0.875000000000000   1.0000000
B2   B   0.777647407140144   0.222178798614607   0.875000000000000   1.0000000
B2   B   0.107959596951324   0.720646465142315   0.375000000000000   1.0000000
B2   B   0.444257078062526   0.730142930804613   0.375000000000000   1.0000000
B2   B   0.274726917361967   0.210921416714372   0.375000000000000   1.0000000
B2   B   0.778794000963101   0.725110838479955   0.375000000000000   1.0000000
B2   B   0.612519610070078   0.215108561335697   0.375000000000000   1.0000000
B2   B   0.946371314667705   0.222895791837774   0.375000000000000   1.0000000
B2   B   0.111044439392167   0.388848557234243   0.875000000000000   1.0000000
B2   B   0.277677777871530   0.888851397874027   0.875000000000000   1.0000000
B2   B   0.610977886250968   0.888803897949662   0.875000000000000   1.0000000
B2   B   0.444341159071537   0.388837246202433   0.875000000000000   1.0000000
B2   B   0.944334861830352   0.888825434431696   0.875000000000000   1.0000000
B2   B   0.108121082544458   0.885668590289816   0.375000000000000   1.0000000
B2   B   0.777632313430869   0.388839403792248   0.875000000000000   1.0000000
B2   B   0.444456573626640   0.888894953479997   0.375000000000000   1.0000000
B2   B   0.274726917361967   0.397138833980924   0.375000000000000   1.0000000
B2   B   0.275250968384156   0.560496967908265   0.375000000000000   1.0000000
B2   B   0.614189250599541   0.374577013444120   0.375000000000000   1.0000000
B2   B   0.779673611058265   0.891585519307668   0.375000000000000   1.0000000
B2   B   0.943610334457623   0.388405098017044   0.375000000000000   1.0000000
B2   B   0.111015011269303   0.555500947249400   0.875000000000000   1.0000000
B2   B   0.277693784263339   0.055541104748213   0.875000000000000   1.0000000
B2   B   0.777626908176493   0.555480120754927   0.875000000000000   1.0000000
B2   B   0.610977886250968   0.055507321634587   0.875000000000000   1.0000000
B2   B   0.944357314303027   0.055507319493025   0.875000000000000   1.0000000
B2   B   0.056316391305340   0.111546492124947   0.125397224440097   1.0000000
B2   B   0.556257015468260   0.611390902372468   0.124640114475297   1.0000000
B2   B   0.389690210699178   0.111684445452681   0.125623031260070   1.0000000
B2   B   0.889400048276286   0.611366690804813   0.125104019214932   1.0000000
B2   B   0.722875825624384   0.111421069579559   0.125023112315810   1.0000000
B2   B   0.056155840758097   0.778114002951336   0.624840202099242   1.0000000
B2   B   0.389586197128275   0.778069200368856   0.624705516046071   1.0000000
B2   B   0.223159814243197   0.278246573788260   0.624041596196176   1.0000000
B2   B   0.722847061680342   0.778131858154620   0.625015354378772   1.0000000
B2   B   0.556257015468260   0.278199446429152   0.625359885524710   1.0000000
B2   B   0.889530960726623   0.278036097110627   0.624943671979007   1.0000000
B2   B   0.222873972390510   0.778103652861927   0.125178811746472   1.0000000
B2   B   0.056316391305340   0.278103232513730   0.125397224440097   1.0000000
B2   B   0.389837011900588   0.278452543790485   0.125101294701973   1.0000000
B2   B   0.556231118911267   0.778075239294346   0.125255718575363   1.0000000
B2   B   0.889456906405363   0.778130175355687   0.125108694937562   1.0000000
B2   B   0.722847061680342   0.278048536859067   0.124984645621232   1.0000000
B2   B   0.056243170970795   0.944876292183864   0.624728251730497   1.0000000
B2   B   0.389586197128275   0.944850330092759   0.624705516046071   1.0000000
B2   B   0.223073425116965   0.444721069891894   0.624303538705986   1.0000000
B2   B   0.556260472246888   0.444796902790108   0.626878756888876   1.0000000
B2   B   0.722875825624384   0.944788089378159   0.624976887684190   1.0000000
B2   B   0.889456906405363   0.444660064383006   0.624891305062449   1.0000000
B2   B   0.056243170970795   0.444700212120270   0.125271748269504   1.0000000
B2   B   0.222930779338142   0.944897404662340   0.125372523439672   1.0000000
B2   B   0.556215983426510   0.944774658379931   0.125173104704754   1.0000000
B2   B   0.389837011900588   0.444717801443434   0.125101294701973   1.0000000
B2   B   0.889530960726623   0.944828196949321   0.125056328020997   1.0000000
B2   B   0.722794853382363   0.444690316890889   0.124399211171291   1.0000000
B2   B   0.222930779338142   0.611366708009118   0.624627476560330   1.0000000
B2   B   0.056316391305340   0.111546492124947   0.624602775559909   1.0000000
B2   B   0.556257015468260   0.611390902372468   0.625359885524710   1.0000000
B2   B   0.389690210699178   0.111684445452681   0.624376968739921   1.0000000
B2   B   0.889400048276286   0.611366690804813   0.624895980785059   1.0000000
B2   B   0.056155840758098   0.611375171140103   0.125159797900767   1.0000000
B2   B   0.722875825624384   0.111421069579559   0.624976887684190   1.0000000
B2   B   0.223073425116965   0.111685688558405   0.125696461294027   1.0000000
B2   B   0.389690210699178   0.611339098579846   0.125623031260070   1.0000000
B2   B   0.722794853382363   0.611437869824829   0.124399211171291   1.0000000
B2   B   0.556231118911267   0.111489212950238   0.125255718575363   1.0000000
B2   B   0.389690210699178   0.611339098579846   0.624376968739921   1.0000000
B2   B   0.889562114745160   0.111447724039249   0.125020503157208   1.0000000
B2   B   0.222873972390510   0.778103652861927   0.624821188253532   1.0000000
B2   B   0.056316391305340   0.278103232513730   0.624602775559909   1.0000000
B2   B   0.389837011900588   0.278452543790485   0.624898705298028   1.0000000
B2   B   0.556231118911267   0.778075239294346   0.624744281424629   1.0000000
B2   B   0.889456906405363   0.778130175355687   0.624891305062449   1.0000000
B2   B   0.722847061680342   0.278048536859067   0.625015354378772   1.0000000
B2   B   0.056155840758098   0.778114002951336   0.125159797900767   1.0000000
B2   B   0.389586197128274   0.778069200368856   0.125294483953937   1.0000000
B2   B   0.223159814243197   0.278246573788260   0.125958403803826   1.0000000
B2   B   0.722847061680342   0.778131858154620   0.124984645621232   1.0000000
B2   B   0.556257015468260   0.278199446429152   0.124640114475297   1.0000000
B2   B   0.889530960726623   0.278036097110627   0.125056328020997   1.0000000
B2   B   0.056243170970795   0.444700212120270   0.624728251730497   1.0000000
B2   B   0.222930779338142   0.944897404662345   0.624627476560330   1.0000000
B2   B   0.556215983426510   0.944774658379931   0.624826895295237   1.0000000
B2   B   0.389837011900588   0.444717801443434   0.624898705298028   1.0000000
B2   B   0.889530960726623   0.944828196949321   0.624943671979007   1.0000000
B2   B   0.056243170970795   0.944876292183864   0.125271748269504   1.0000000
B2   B   0.722794853382363   0.444690316890889   0.625600788828704   1.0000000
B2   B   0.389586197128274   0.944850330092759   0.125294483953937   1.0000000
B2   B   0.223073425116965   0.444721069891894   0.125696461294027   1.0000000
B2   B   0.222930779338142   0.611366708009118   0.125372523439672   1.0000000
B2   B   0.556260472246900   0.444796902790108   0.123121243111117   1.0000000
B2   B   0.722875825624384   0.944788089378159   0.125023112315810   1.0000000
B2   B   0.889456906405363   0.444660064383006   0.125108694937562   1.0000000
B2   B   0.056155840758098   0.611375171140103   0.624840202099242   1.0000000
B2   B   0.223073425116965   0.111685688558405   0.624303538705986   1.0000000
B2   B   0.722794853382363   0.611437869824829   0.625600788828704   1.0000000
B2   B   0.556231118911267   0.111489212950238   0.624744281424629   1.0000000
B2   B   0.889562114745160   0.111447724039249   0.624979496842791   1.0000000


