data_1
_audit_creation_method   'vasp2cif'
_cell_length_a    17.52789999999977
_cell_length_b    17.52789999999977
_cell_length_c    15.0
_cell_angle_alpha    90.0
_cell_angle_beta    90.0
_cell_angle_gamma    119.99999999999916

_symmetry_space_group_name_H-M    'P 1'
loop_
_atom_site_label
_atom_site_type_symbol
_atom_site_fract_x
_atom_site_fract_y
_atom_site_fract_z
_atom_site_occupancy
B2   B   0.905404694464153   0.953167993689943   0.111023174515850   1.0000000
B2   B   0.904675549647279   0.095326471548717   0.111037577790309   1.0000000
B2   B   0.904675549647279   0.237920384424562   0.111037577790309   1.0000000
B2   B   0.905404694464153   0.380809718656211   0.111023174515850   1.0000000
B2   B   0.907416630946705   0.524233721657833   0.111041514731968   1.0000000
B2   B   0.907472955037069   0.668022986460036   0.111064637454542   1.0000000
B2   B   0.907416630946705   0.811755927171883   0.111041514731968   1.0000000
B2   B   0.047797139640849   0.952204881555155   0.111022131642916   1.0000000
B2   B   0.046834027506060   0.094597326731844   0.111023174515850   1.0000000
B2   B   0.046545376383202   0.237559197132602   0.111015924809760   1.0000000
B2   B   0.046834027506060   0.380809718656211   0.111023174515850   1.0000000
B2   B   0.047797139640849   0.524166987524701   0.111022131642916   1.0000000
B2   B   0.048551056931971   0.667199257612411   0.111040848181200   1.0000000
B2   B   0.048551056931971   0.809926528758552   0.111040848181200   1.0000000
B2   B   0.190075492437451   0.951450964264032   0.111040848181200   1.0000000
B2   B   0.188246094024127   0.092585390249291   0.111041514731968   1.0000000
B2   B   0.187993524262018   0.236061573486840   0.111019931295690   1.0000000
B2   B   0.187993524262018   0.380504968657180   0.111019931295690   1.0000000
B2   B   0.188246094024127   0.524233721657833   0.111041514731968   1.0000000
B2   B   0.190075492437451   0.667199257612411   0.111040848181200   1.0000000
B2   B   0.190476437651000   0.809525583545003   0.111008416039827   1.0000000
B2   B   0.332802763584587   0.951450964264032   0.111040848181200   1.0000000
B2   B   0.331979034736962   0.092529066158927   0.111064637454542   1.0000000
B2   B   0.327561857122983   0.231750398545172   0.111010655767965   1.0000000
B2   B   0.329125382748882   0.378849200314941   0.110999612285734   1.0000000
B2   B   0.327561857122983   0.524384476459812   0.111010655767965   1.0000000
B2   B   0.331979034736962   0.668022986460036   0.111064637454542   1.0000000
B2   B   0.332802763584587   0.809926528758552   0.111040848181200   1.0000000
B2   B   0.475835033672298   0.952204881555155   0.111022131642916   1.0000000
B2   B   0.475768299539165   0.092585390249291   0.111041514731968   1.0000000
B2   B   0.475617544737186   0.231750398545172   0.111010655767965   1.0000000
B2   B   0.464814525400316   0.358200047485636   0.111044115918226   1.0000000
B2   B   0.464814525400316   0.535187495796682   0.111044115918226   1.0000000
B2   B   0.475617544737186   0.672440164074015   0.111010655767965   1.0000000
B2   B   0.475768299539165   0.811755927171883   0.111041514731968   1.0000000
B2   B   0.619192302539792   0.953167993689943   0.111023174515850   1.0000000
B2   B   0.619192302539792   0.094597326731844   0.111023174515850   1.0000000
B2   B   0.619497052538823   0.236061573486840   0.111019931295690   1.0000000
B2   B   0.621152820881062   0.378849200314941   0.110999612285734   1.0000000
B2   B   0.641801973710360   0.535187495796682   0.111044115918226   1.0000000
B2   B   0.621152820881062   0.670876638448116   0.110999612285734   1.0000000
B2   B   0.619497052538823   0.812008496933985   0.111019931295690   1.0000000
B2   B   0.762442824063402   0.953456644812802   0.111015924809760   1.0000000
B2   B   0.762081636771435   0.095326471548717   0.111037577790309   1.0000000
B2   B   0.762442824063402   0.237559197132602   0.111015924809760   1.0000000
B2   B   0.763940447709164   0.380504968657180   0.111019931295690   1.0000000
B2   B   0.768251622650831   0.524384476459812   0.111010655767965   1.0000000
B2   B   0.768251622650831   0.672440164074015   0.111010655767965   1.0000000
B2   B   0.763940447709164   0.812008496933985   0.111019931295690   1.0000000
N2   N   0.953315940442752   0.905867496723983   0.111009977080858   1.0000000
N2   N   0.952208287277400   0.047793114640605   0.111013419035490   1.0000000
N2   N   0.951975718816310   0.190272656784652   0.111017456757771   1.0000000
N2   N   0.952208287277400   0.332984767389795   0.111013419035490   1.0000000
N2   N   0.953315940442752   0.476019750027765   0.111009977080858   1.0000000
N2   N   0.953708203495636   0.619473141420302   0.111042903541957   1.0000000
N2   N   0.953708203495636   0.762806368385331   0.111042903541957   1.0000000
N2   N   0.095340718094730   0.904660683823269   0.111009109467257   1.0000000
N2   N   0.094133905194015   0.046685461475253   0.111009977080858   1.0000000
N2   N   0.093863801026092   0.189677666842664   0.111001138811227   1.0000000
N2   N   0.093863801026092   0.332757440492431   0.111001138811227   1.0000000
N2   N   0.094133905194015   0.476019750027765   0.111009977080858   1.0000000
N2   N   0.095340718094730   0.619253052137461   0.111009109467257   1.0000000
N2   N   0.095634415214179   0.762103716540090   0.111009335174035   1.0000000
N2   N   0.237897685377916   0.904366986703820   0.111009335174035   1.0000000
N2   N   0.237195033532674   0.046293198422370   0.111042903541957   1.0000000
N2   N   0.234228804150178   0.186977709945456   0.111008574808171   1.0000000
N2   N   0.235419974285557   0.331995640297280   0.110998829402096   1.0000000
N2   N   0.234228804150178   0.475822400513718   0.111008574808171   1.0000000
N2   N   0.237195033532674   0.619473141420302   0.111042903541957   1.0000000
N2   N   0.237897685377916   0.762103716540090   0.111009335174035   1.0000000
N2   N   0.380748349780538   0.904660683823269   0.111009109467257   1.0000000
N2   N   0.380528260497697   0.046293198422370   0.111042903541957   1.0000000
N2   N   0.379575527993297   0.187720960378593   0.111020104267366   1.0000000
N2   N   0.372934264905787   0.325825862029113   0.110983249683430   1.0000000
N2   N   0.372934264905787   0.475679709185671   0.110983249683430   1.0000000
N2   N   0.379575527993297   0.620425873924702   0.111020104267366   1.0000000
N2   N   0.380528260497697   0.762806368385331   0.111042903541957   1.0000000
N2   N   0.523981651889232   0.905867496723983   0.111009977080858   1.0000000
N2   N   0.523981651889232   0.046685461475253   0.111009977080858   1.0000000
N2   N   0.524179001403279   0.186977709945456   0.111008574808171   1.0000000
N2   N   0.524321692731326   0.325825862029113   0.110983249683430   1.0000000
N2   N   0.524321692731326   0.627067137012218   0.110983249683430   1.0000000
N2   N   0.524179001403279   0.765772597767828   0.111008574808171   1.0000000
N2   N   0.667243961424566   0.906137600891906   0.111001138811227   1.0000000
N2   N   0.667016634527202   0.047793114640605   0.111013419035490   1.0000000
N2   N   0.667243961424566   0.189677666842664   0.111001138811227   1.0000000
N2   N   0.668005761619717   0.331995640297280   0.110998829402096   1.0000000
N2   N   0.674175539887884   0.475679709185671   0.110983249683430   1.0000000
N2   N   0.674175539887884   0.627067137012218   0.110983249683430   1.0000000
N2   N   0.668005761619717   0.764581427632448   0.110998829402096   1.0000000
N2   N   0.810323735075335   0.906137600891906   0.111001138811227   1.0000000
N2   N   0.809728745133347   0.048025683101695   0.111017456757771   1.0000000
N2   N   0.809728745133347   0.190272656784652   0.111017456757771   1.0000000
N2   N   0.810323735075335   0.332757440492431   0.111001138811227   1.0000000
N2   N   0.813023691972543   0.475822400513718   0.111008574808171   1.0000000
N2   N   0.812280441539406   0.620425873924702   0.111020104267366   1.0000000
N2   N   0.813023691972543   0.765772597767828   0.111008574808171   1.0000000
Se2   Se   0.523810499174999   0.476190902741997   0.111103011433766   1.0000000


