data_1
_audit_creation_method   'vasp2cif'
_cell_length_a    17.52789999999977
_cell_length_b    17.52789999999977
_cell_length_c    15.0
_cell_angle_alpha    90.0
_cell_angle_beta    90.0
_cell_angle_gamma    119.99999999999916

_symmetry_space_group_name_H-M    'P 1'
loop_
_atom_site_label
_atom_site_type_symbol
_atom_site_fract_x
_atom_site_fract_y
_atom_site_fract_z
_atom_site_occupancy
B2   B   0.905203656232693   0.952388731728004   0.111043874433308   1.0000000
B2   B   0.905048017693690   0.094954003502306   0.111045263720135   1.0000000
B2   B   0.904988890786472   0.237653510836185   0.111019864293467   1.0000000
B2   B   0.905192338040444   0.380594460571960   0.110980550466161   1.0000000
B2   B   0.905671248338585   0.523705960199222   0.111064108500853   1.0000000
B2   B   0.904961488309078   0.666606582816896   0.111153340064858   1.0000000
B2   B   0.904549770791115   0.809068608687754   0.111108056212066   1.0000000
B2   B   0.047673488283111   0.952328532912892   0.111018785082378   1.0000000
B2   B   0.047613289468007   0.094798364963303   0.111043874433308   1.0000000
B2   B   0.047360805886358   0.237510078013787   0.111048681984726   1.0000000
B2   B   0.047083515827034   0.380661848803444   0.111035180721408   1.0000000
B2   B   0.046936327584179   0.523992245240825   0.111032880001036   1.0000000
B2   B   0.047438497631589   0.666947855198351   0.111082976320770   1.0000000
B2   B   0.047503158035427   0.809644771971547   0.111033025811061   1.0000000
B2   B   0.190357249224465   0.952498863160584   0.111033025811061   1.0000000
B2   B   0.190933412508250   0.095452250404888   0.111108056212066   1.0000000
B2   B   0.189733293530824   0.236994174626183   0.111073929404609   1.0000000
B2   B   0.189026803575748   0.380355448284008   0.111013787007665   1.0000000
B2   B   0.187733397999356   0.524255188636652   0.111024198414526   1.0000000
B2   B   0.189735423561737   0.667307289122103   0.111043085819453   1.0000000
B2   B   0.190079042253404   0.809922978942600   0.111021880028421   1.0000000
B2   B   0.333054165998648   0.952563523564414   0.111082976320770   1.0000000
B2   B   0.333395438380101   0.095040532886919   0.111153340064858   1.0000000
B2   B   0.334667737628956   0.238750112429736   0.111117905296778   1.0000000
B2   B   0.331574734896236   0.378635168542328   0.110983462308414   1.0000000
B2   B   0.327195035781005   0.524420357667468   0.110898594537678   1.0000000
B2   B   0.332193389360089   0.667808631836910   0.110971807729834   1.0000000
B2   B   0.332694732074896   0.810266597634267   0.111043085819453   1.0000000
B2   B   0.476009775956173   0.953065693611824   0.111032880001036   1.0000000
B2   B   0.476296060997777   0.094330772857411   0.111064108500853   1.0000000
B2   B   0.476767241305155   0.235388812850556   0.110969467553074   1.0000000
B2   B   0.480044904383388   0.377863349484495   0.111137778918406   1.0000000
B2   B   0.475581663529538   0.672806985415994   0.110898594537678   1.0000000
B2   B   0.475746832560354   0.812268623196648   0.111024198414526   1.0000000
B2   B   0.619340172392560   0.952918505368970   0.111035180721408   1.0000000
B2   B   0.619407560624035   0.094809683155553   0.110980550466161   1.0000000
B2   B   0.619872781269961   0.236760163091674   0.110925920901816   1.0000000
B2   B   0.621103462944543   0.378898558251460   0.110884886051943   1.0000000
B2   B   0.622138671711502   0.519957116813610   0.111137778918406   1.0000000
B2   B   0.621366852653677   0.668427286300763   0.110983462308414   1.0000000
B2   B   0.619646572911995   0.810975217620254   0.111013787007665   1.0000000
B2   B   0.762491943182217   0.952641215309645   0.111048681984726   1.0000000
B2   B   0.762348510359811   0.095013130409525   0.111019864293467   1.0000000
B2   B   0.762543801280069   0.237458219915936   0.110944431053633   1.0000000
B2   B   0.763241858104329   0.380129239926043   0.110925920901816   1.0000000
B2   B   0.764613208345447   0.523234779891852   0.110969467553074   1.0000000
B2   B   0.761251908766260   0.665334283568050   0.111117905296778   1.0000000
B2   B   0.763007846569820   0.810268727665178   0.111073929404609   1.0000000
N2   N   0.952393788948576   0.904459781517375   0.111031376969571   1.0000000
N2   N   0.952613509900041   0.047387892017964   0.111019604853878   1.0000000
N2   N   0.952413644727849   0.190006220620413   0.111027467123444   1.0000000
N2   N   0.952300476073677   0.332778628381501   0.110991269229715   1.0000000
N2   N   0.952408765232801   0.475828185554709   0.111003724031252   1.0000000
N2   N   0.952468534959339   0.618972143324898   0.111122533042627   1.0000000
N2   N   0.952351745779104   0.761780948235348   0.111106538544915   1.0000000
N2   N   0.095195599925615   0.904805801992383   0.110969180748988   1.0000000
N2   N   0.095541620400617   0.047607612969429   0.111031376969571   1.0000000
N2   N   0.094815955941120   0.189736420239545   0.111047074482512   1.0000000
N2   N   0.094290543013035   0.332639420051142   0.111033794139046   1.0000000
N2   N   0.093437772570095   0.475947344435401   0.111027125180423   1.0000000
N2   N   0.094689007095990   0.619265917527917   0.111033389385381   1.0000000
N2   N   0.094987708244646   0.762122512893281   0.111015559287593   1.0000000
N2   N   0.237878889024726   0.905013693673360   0.111015559287593   1.0000000
N2   N   0.238220453682659   0.047649656138902   0.111106538544915   1.0000000
N2   N   0.238920484754365   0.190818897536739   0.111111272274485   1.0000000
N2   N   0.236288364786299   0.331627183357169   0.111013228474037   1.0000000
N2   N   0.233387947765770   0.475870379764238   0.110956264823309   1.0000000
N2   N   0.236874938125877   0.619642985090433   0.110996395718087   1.0000000
N2   N   0.237544020752266   0.762457381165738   0.111027573101536   1.0000000
N2   N   0.380735484390081   0.905312394822009   0.111033389385381   1.0000000
N2   N   0.381029258593101   0.047532866958668   0.111122533042627   1.0000000
N2   N   0.381484881647905   0.190101011504674   0.111104020969051   1.0000000
N2   N   0.383600731146533   0.334722831517936   0.111059898558950   1.0000000
N2   N   0.366029572166276   0.470912898606401   0.110823657809212   1.0000000
N2   N   0.379653344816820   0.620348057101178   0.110856267761881   1.0000000
N2   N   0.380358416827567   0.763126463792130   0.110996395718087   1.0000000
N2   N   0.524054057481597   0.906563629347903   0.111027125180423   1.0000000
N2   N   0.524173216362286   0.047592636685205   0.111003724031252   1.0000000
N2   N   0.524601922932991   0.188802524405703   0.110972372212124   1.0000000
N2   N   0.525607267097804   0.329323761581658   0.110869449226504   1.0000000
N2   N   0.529088503310595   0.633971829751724   0.110823657809212   1.0000000
N2   N   0.524131022152765   0.766613454152243   0.110956264823309   1.0000000
N2   N   0.667361981865854   0.905710858904963   0.111033794139046   1.0000000
N2   N   0.667222773535496   0.047700925844329   0.110991269229715   1.0000000
N2   N   0.667460572652603   0.189670394750651   0.110923744100259   1.0000000
N2   N   0.668273712600696   0.331727689316300   0.110879492942247   1.0000000
N2   N   0.670677640335339   0.474394134819193   0.110869449226504   1.0000000
N2   N   0.665278570399061   0.616400670771465   0.111059898558950   1.0000000
N2   N   0.668374218559827   0.763713037131707   0.111013228474037   1.0000000
N2   N   0.810264981678454   0.905185445976879   0.111047074482512   1.0000000
N2   N   0.809995181297592   0.047587757190157   0.111027467123444   1.0000000
N2   N   0.809997161754548   0.190004240163451   0.110977775437730   1.0000000
N2   N   0.810331007167348   0.332540829264401   0.110923744100259   1.0000000
N2   N   0.811198877512288   0.475399478984006   0.110972372212124   1.0000000
N2   N   0.809900390413325   0.618516520270093   0.111104020969051   1.0000000
N2   N   0.809182504381259   0.761080917163640   0.111111272274485   1.0000000
O2   O   0.464264689650486   0.535737331546512   0.110773327859259   1.0000000
O2   O   0.534308172327963   0.465693229589034   0.111448074518903   1.0000000


