data_1
_audit_creation_method   'vasp2cif'
_cell_length_a    17.52789999999977
_cell_length_b    17.52789999999977
_cell_length_c    15.0
_cell_angle_alpha    90.0
_cell_angle_beta    90.0
_cell_angle_gamma    119.99999999999916

_symmetry_space_group_name_H-M    'P 1'
loop_
_atom_site_label
_atom_site_type_symbol
_atom_site_fract_x
_atom_site_fract_y
_atom_site_fract_z
_atom_site_occupancy
B2   B   0.905235578252473   0.952890242537066   0.110289197609440   1.0000000
B2   B   0.904575386419957   0.095426634776032   0.109406710525718   1.0000000
B2   B   0.904376908284362   0.238224222516443   0.109841078930046   1.0000000
B2   B   0.904542265924299   0.381105470167434   0.111437522920774   1.0000000
B2   B   0.905142113061160   0.524029848059214   0.114057382816945   1.0000000
B2   B   0.905640923706983   0.667059371570041   0.114018256612070   1.0000000
B2   B   0.905634456145329   0.810069806787773   0.113100333657066   1.0000000
B2   B   0.047748710220937   0.952253310975067   0.111331587719462   1.0000000
B2   B   0.047111778658938   0.094766442943524   0.110289197609440   1.0000000
B2   B   0.046906601691418   0.237752203732576   0.109174584693513   1.0000000
B2   B   0.047079727458041   0.380826380242951   0.108744098099038   1.0000000
B2   B   0.047566377104211   0.523803271292564   0.109454526089138   1.0000000
B2   B   0.048122702267655   0.666676847512392   0.111270197433143   1.0000000
B2   B   0.048094448372787   0.809534563385711   0.111853303578116   1.0000000
B2   B   0.190467457810300   0.951907572823224   0.111853303578116   1.0000000
B2   B   0.189932214408216   0.094367565050668   0.113100333657066   1.0000000
B2   B   0.188845030911921   0.236471555483952   0.111066820003060   1.0000000
B2   B   0.189304107718790   0.380110889230046   0.111627069146799   1.0000000
B2   B   0.189942780888245   0.523475725098372   0.110119877888891   1.0000000
B2   B   0.190901477327024   0.666437770552939   0.109126200732817   1.0000000
B2   B   0.190754541254925   0.809247479941078   0.109888798063672   1.0000000
B2   B   0.333325173684614   0.951879318928341   0.111270197433143   1.0000000
B2   B   0.332942649626951   0.094361097489006   0.114018256612070   1.0000000
B2   B   0.332057864824598   0.236316394455279   0.111878522054063   1.0000000
B2   B   0.330495301696715   0.377473406856176   0.117212161128087   1.0000000
B2   B   0.331456283179705   0.522588551359178   0.124199118178751   1.0000000
B2   B   0.333948189478697   0.666053831718308   0.113823389100226   1.0000000
B2   B   0.333564250644059   0.809100543868986   0.109126200732817   1.0000000
B2   B   0.476198749904441   0.952435644091800   0.109454526089138   1.0000000
B2   B   0.475972173137784   0.094859908134843   0.114057382816945   1.0000000
B2   B   0.475657473444066   0.237040153211275   0.112847282208833   1.0000000
B2   B   0.471817353455670   0.373157088946336   0.084769160069108   1.0000000
B2   B   0.477413469837821   0.668545738017293   0.124199118178751   1.0000000
B2   B   0.476526296098626   0.810059240307751   0.110119877888891   1.0000000
B2   B   0.619175640953046   0.952922293737956   0.108744098099038   1.0000000
B2   B   0.618896551028591   0.095459755271698   0.111437522920774   1.0000000
B2   B   0.618796798320830   0.238154720162349   0.114059164318483   1.0000000
B2   B   0.619029183097219   0.380972838098799   0.105498650206080   1.0000000
B2   B   0.626844932249675   0.528184667741321   0.084769160069108   1.0000000
B2   B   0.622528614339835   0.669506719500291   0.117212161128087   1.0000000
B2   B   0.619891131965957   0.810697913477213   0.111627069146799   1.0000000
B2   B   0.762249817463427   0.953095419504585   0.109174584693513   1.0000000
B2   B   0.761777798679567   0.095625112911641   0.109841078930046   1.0000000
B2   B   0.761661800293034   0.238340220902977   0.112255283199239   1.0000000
B2   B   0.761847301033654   0.381205222875167   0.114059164318483   1.0000000
B2   B   0.762961867984728   0.524344547752932   0.112847282208833   1.0000000
B2   B   0.763685626740717   0.667944156372407   0.111878522054063   1.0000000
B2   B   0.763530465712051   0.811156990284090   0.111066820003060   1.0000000
N2   N   0.952766234406297   0.905074185055781   0.111331078977202   1.0000000
N2   N   0.952234936852633   0.047766465065358   0.109717722883481   1.0000000
N2   N   0.951871679225533   0.190501246239627   0.109283121782788   1.0000000
N2   N   0.951923738429521   0.333377376356871   0.109611907860518   1.0000000
N2   N   0.952355900931572   0.476271960343524   0.111466513764036   1.0000000
N2   N   0.952901125395528   0.619192962097898   0.113705782411088   1.0000000
N2   N   0.953006282580709   0.762175759691772   0.113415296168398   1.0000000
N2   N   0.095389567310008   0.904611834607991   0.111353523732539   1.0000000
N2   N   0.094927216862224   0.047235167511708   0.111331078977202   1.0000000
N2   N   0.094101251703741   0.189626481166400   0.109793487569171   1.0000000
N2   N   0.094295892419666   0.332858488887560   0.108960115674982   1.0000000
N2   N   0.094786008982659   0.476000898814178   0.108120369123235   1.0000000
N2   N   0.095558894639666   0.618973833166670   0.109430850924881   1.0000000
N2   N   0.095580609626111   0.761825988003807   0.110763732787085   1.0000000
N2   N   0.238175413914192   0.904420792291887   0.110763732787085   1.0000000
N2   N   0.237825642226220   0.046995119337282   0.113415296168398   1.0000000
N2   N   0.237107065911992   0.189318568413206   0.113715089937415   1.0000000
N2   N   0.235643599254182   0.331014104557930   0.111753372026115   1.0000000
N2   N   0.236612133012784   0.475412845997113   0.113313266137986   1.0000000
N2   N   0.238466892886478   0.618749368549011   0.110221260613677   1.0000000
N2   N   0.238363160449502   0.761638241468511   0.108948230424730   1.0000000
N2   N   0.381027568751321   0.904442507278333   0.109430850924881   1.0000000
N2   N   0.380808439820100   0.047100276522485   0.113705782411088   1.0000000
N2   N   0.380433049877127   0.189526520550821   0.113548150335035   1.0000000
N2   N   0.379602427825191   0.331411742250722   0.105453756744779   1.0000000
N2   N   0.369705184782383   0.468313450735920   0.136386687586246   1.0000000
N2   N   0.381571861071940   0.618429540846051   0.122400381028399   1.0000000
N2   N   0.381252033368995   0.761534509031527   0.110221260613677   1.0000000
N2   N   0.524000503102819   0.905215392935339   0.108120369123235   1.0000000
N2   N   0.523729441573487   0.047645500986441   0.111466513764036   1.0000000
N2   N   0.523598108504295   0.190136721301712   0.115802089734494   1.0000000
N2   N   0.523254572456565   0.332157632771832   0.103937847645518   1.0000000
N2   N   0.531687951181077   0.630296217135616   0.136386687586246   1.0000000
N2   N   0.524588555919891   0.763389268905215   0.113313266137986   1.0000000
N2   N   0.667142913029437   0.905705509498333   0.108960115674982   1.0000000
N2   N   0.666624025560132   0.048077663488485   0.109611907860518   1.0000000
N2   N   0.666448158810688   0.190733408409628   0.113139976277267   1.0000000
N2   N   0.666383780811849   0.333617621105141   0.112639190187807   1.0000000
N2   N   0.667843769145172   0.476746829460446   0.103937847645518   1.0000000
N2   N   0.668589659666274   0.620398974092808   0.105453756744779   1.0000000
N2   N   0.668987297359067   0.764357802663824   0.111753372026115   1.0000000
N2   N   0.810374920751606   0.905900150214251   0.109793487569171   1.0000000
N2   N   0.809500155678371   0.048129722692472   0.109283121782788   1.0000000
N2   N   0.809223946555669   0.190777455362330   0.110625871224201   1.0000000
N2   N   0.809267993508364   0.333553243106302   0.113139976277267   1.0000000
N2   N   0.809864680616293   0.476403293412709   0.115802089734494   1.0000000
N2   N   0.810474881367185   0.619568352040872   0.113548150335035   1.0000000
N2   N   0.810682833504785   0.762894336006006   0.113715089937415   1.0000000
O2   O   0.474190727763251   0.525811293433748   0.153890371885673   1.0000000
S2   S   0.523152830144454   0.476848571772550   0.021581065318550   1.0000000


