data_1
_audit_creation_method   'vasp2cif'
_cell_length_a    14.93631414619966
_cell_length_b    14.936314146199727
_cell_length_c    13.341276283792837
_cell_angle_alpha    90.0
_cell_angle_beta    90.0
_cell_angle_gamma    119.99999999999984

_symmetry_space_group_name_H-M    'P 1'
loop_
_atom_site_label
_atom_site_type_symbol
_atom_site_fract_x
_atom_site_fract_y
_atom_site_fract_z
_atom_site_occupancy
N2   N   0.111089227111245   0.055552696021451   0.124953556884321   1.0000000
N2   N   0.611083860192203   0.555520376978243   0.125678865176975   1.0000000
N2   N   0.444439874280074   0.055553250390800   0.124992454103926   1.0000000
N2   N   0.944441043394936   0.555552558169139   0.125096484489960   1.0000000
N2   N   0.777735435069409   0.055534384201372   0.125057356493890   1.0000000
N2   N   0.111113506168800   0.722223419751066   0.624969263908910   1.0000000
N2   N   0.444439874280074   0.722219957222613   0.625007545896072   1.0000000
N2   N   0.277746190679234   0.222215375362728   0.625034988430001   1.0000000
N2   N   0.777753098711437   0.722198958826741   0.624797557163262   1.0000000
N2   N   0.611081103454825   0.222214854013069   0.624823135779844   1.0000000
N2   N   0.944399015883952   0.222201927075452   0.625007485768597   1.0000000
N2   N   0.277780316629699   0.722220301232925   0.124989913550571   1.0000000
N2   N   0.111063979220136   0.222198656276733   0.124927510046544   1.0000000
N2   N   0.444452394815762   0.222220725106156   0.125067562334955   1.0000000
N2   N   0.611081103454825   0.722199582775081   0.125176864220154   1.0000000
N2   N   0.944441043394936   0.722221818559138   0.125096484489960   1.0000000
N2   N   0.777740230149697   0.222211804632193   0.125082630074910   1.0000000
N2   N   0.111110009447811   0.888895571380937   0.624996922471026   1.0000000
N2   N   0.444438048218698   0.888885690776013   0.624979761580685   1.0000000
N2   N   0.277746190679234   0.388864148649836   0.625034988430001   1.0000000
N2   N   0.611083860192203   0.388896816547283   0.624321134823028   1.0000000
N2   N   0.777740230149697   0.888861758850824   0.624917369925087   1.0000000
N2   N   0.944426221135130   0.388879765605263   0.624965468548704   1.0000000
N2   N   0.111089227111245   0.388869864423124   0.124953556884321   1.0000000
N2   N   0.277780316629699   0.888893348730101   0.124989913550571   1.0000000
N2   N   0.611086067329904   0.888878246752747   0.125040636992999   1.0000000
N2   N   0.444441350189912   0.388887341761619   0.124349364431158   1.0000000
N2   N   0.944426221135130   0.888879788863203   0.125034531451304   1.0000000
N2   N   0.777753098711437   0.388887473218027   0.125202442836742   1.0000000
N2   N   0.277775064218391   0.555544925220746   0.625056993914681   1.0000000
N2   N   0.111089227111245   0.055552696021451   0.625046443115675   1.0000000
N2   N   0.611083860192203   0.555520376978243   0.624321134823028   1.0000000
N2   N   0.444439874280074   0.055553250390800   0.625007545896072   1.0000000
N2   N   0.944441043394936   0.555552558169139   0.624903515510045   1.0000000
N2   N   0.111110009447811   0.555547771400201   0.125003077528977   1.0000000
N2   N   0.777735435069409   0.055534384201372   0.624942643506117   1.0000000
N2   N   0.277775064218391   0.055563472330980   0.124943006085319   1.0000000
N2   N   0.444452394815762   0.555565003042942   0.125067562334955   1.0000000
N2   N   0.777763241620899   0.555548287477110   0.125338950433231   1.0000000
N2   N   0.611086067329904   0.055541153910482   0.125040636992999   1.0000000
N2   N   0.444452394815762   0.555565003042942   0.624932437665040   1.0000000
N2   N   0.944399015883952   0.055530422141839   0.124992514231396   1.0000000
N2   N   0.277780316629699   0.722220301232925   0.625010086449426   1.0000000
N2   N   0.111063979220136   0.222198656276733   0.625072489953453   1.0000000
N2   N   0.444452394815762   0.222220725106156   0.624932437665040   1.0000000
N2   N   0.611081103454825   0.722199582775081   0.624823135779844   1.0000000
N2   N   0.944441043394936   0.722221818559138   0.624903515510045   1.0000000
N2   N   0.777740230149697   0.222211804632193   0.624917369925087   1.0000000
N2   N   0.111113506168800   0.722223419751066   0.125030736091081   1.0000000
N2   N   0.444439874280074   0.722219957222613   0.124992454103926   1.0000000
N2   N   0.277746190679234   0.222215375362728   0.124965011569996   1.0000000
N2   N   0.777753098711437   0.722198958826741   0.125202442836742   1.0000000
N2   N   0.611081103454825   0.222214854013069   0.125176864220154   1.0000000
N2   N   0.944399015883952   0.222201927075452   0.124992514231396   1.0000000
N2   N   0.111089227111245   0.388869864423124   0.625046443115675   1.0000000
N2   N   0.277780316629699   0.888893348730101   0.625010086449426   1.0000000
N2   N   0.611086067329904   0.888878246752747   0.624959363007000   1.0000000
N2   N   0.444441350189912   0.388887341761619   0.625650635568843   1.0000000
N2   N   0.944426221135130   0.888879788863203   0.624965468548704   1.0000000
N2   N   0.111110009447811   0.888895571380937   0.125003077528977   1.0000000
N2   N   0.777753098711437   0.388887473218027   0.624797557163262   1.0000000
N2   N   0.444438048218698   0.888885690776013   0.125020238419315   1.0000000
N2   N   0.277746190679234   0.388864148649836   0.124965011569996   1.0000000
N2   N   0.277775064218391   0.555544925220746   0.124943006085319   1.0000000
N2   N   0.611083860192203   0.388896816547283   0.125678865176975   1.0000000
N2   N   0.777740230149697   0.888861758850824   0.125082630074910   1.0000000
N2   N   0.944426221135130   0.388879765605263   0.125034531451304   1.0000000
N2   N   0.111110009447811   0.555547771400201   0.624996922471026   1.0000000
N2   N   0.277775064218391   0.055563472330980   0.625056993914681   1.0000000
N2   N   0.777763241620899   0.555548287477110   0.624661049566769   1.0000000
N2   N   0.611086067329904   0.055541153910482   0.624959363007000   1.0000000
N2   N   0.944399015883952   0.055530422141839   0.625007485768597   1.0000000
N2   N   0.054200144375937   0.110246420650207   0.375000000000000   1.0000000
N2   N   0.556056465686038   0.606454123749083   0.375000000000000   1.0000000
N2   N   0.389381224870444   0.112690244298709   0.375000000000000   1.0000000
N2   N   0.890570318831899   0.611951826082625   0.375000000000000   1.0000000
N2   N   0.721700003268630   0.111260305653471   0.375000000000000   1.0000000
N2   N   0.055542950944612   0.777771619193558   0.875000000000000   1.0000000
N2   N   0.388880130705444   0.777773945160874   0.875000000000000   1.0000000
N2   N   0.222212124735666   0.277772729034505   0.875000000000000   1.0000000
N2   N   0.722217072863556   0.777773442253088   0.875000000000000   1.0000000
N2   N   0.555550398500505   0.277778533539948   0.875000000000000   1.0000000
N2   N   0.888884303177235   0.277776960969347   0.875000000000000   1.0000000
N2   N   0.222985101466624   0.778159217399983   0.375000000000000   1.0000000
N2   N   0.054200144375937   0.277287057059066   0.375000000000000   1.0000000
N2   N   0.385146706798981   0.274111920728914   0.375000000000000   1.0000000
N2   N   0.555737967877785   0.776026460214750   0.375000000000000   1.0000000
N2   N   0.889241443490013   0.777647609949050   0.375000000000000   1.0000000
N2   N   0.721984499439132   0.278751037243903   0.375000000000000   1.0000000
N2   N   0.055544218215889   0.944437070811630   0.875000000000000   1.0000000
N2   N   0.388880130705444   0.944439518877904   0.875000000000000   1.0000000
N2   N   0.222209741300739   0.444440608706464   0.875000000000000   1.0000000
N2   N   0.555554262896790   0.444443798115059   0.875000000000000   1.0000000
N2   N   0.722216498469368   0.944440907490601   0.875000000000000   1.0000000
N2   N   0.888882993713882   0.444441777981416   0.875000000000000   1.0000000
N2   N   0.055376022740362   0.444449758476052   0.375000000000000   1.0000000
N2   N   0.222764594008003   0.945055098912799   0.375000000000000   1.0000000
N2   N   0.555638572979518   0.944485953156419   0.375000000000000   1.0000000
N2   N   0.385146706798981   0.444368119403405   0.375000000000000   1.0000000
N2   N   0.888175071618760   0.943716161043228   0.375000000000000   1.0000000
N2   N   0.723315226888047   0.446351358855663   0.375000000000000   1.0000000
N2   N   0.222208857638915   0.611106556124586   0.875000000000000   1.0000000
N2   N   0.055546536167574   0.111105076101429   0.875000000000000   1.0000000
N2   N   0.555550398500505   0.611105198293895   0.875000000000000   1.0000000
N2   N   0.388879806612815   0.111107270105654   0.875000000000000   1.0000000
N2   N   0.888881286042100   0.611107309687714   0.875000000000000   1.0000000
N2   N   0.056452066392467   0.611476205008494   0.375000000000000   1.0000000
N2   N   0.722216498469368   0.111108924312100   0.875000000000000   1.0000000
N2   N   0.221385389807635   0.110814427298415   0.375000000000000   1.0000000
N2   N   0.389381224870444   0.610024313905079   0.375000000000000   1.0000000
N2   N   0.723315226888047   0.610297201365721   0.375000000000000   1.0000000
N2   N   0.555737967877785   0.113044840996371   0.375000000000000   1.0000000
N2   N   0.388879806612815   0.611105869840508   0.875000000000000   1.0000000
N2   N   0.887893642796129   0.110613488064737   0.375000000000000   1.0000000
N2   N   0.222208281224739   0.777770807279038   0.875000000000000   1.0000000
N2   N   0.055546536167574   0.277774793399483   0.875000000000000   1.0000000
N2   N   0.388880037541376   0.277772093452965   0.875000000000000   1.0000000
N2   N   0.555548255479637   0.777773390059918   0.875000000000000   1.0000000
N2   N   0.888882993713882   0.777774549065799   0.875000000000000   1.0000000
N2   N   0.722217072863556   0.277776963943797   0.875000000000000   1.0000000
N2   N   0.056452066392467   0.778309194717312   0.375000000000000   1.0000000
N2   N   0.389436668218739   0.777538517603188   0.375000000000000   1.0000000
N2   N   0.219506705089870   0.276420019211604   0.375000000000000   1.0000000
N2   N   0.721984499439132   0.776566795528570   0.375000000000000   1.0000000
N2   N   0.556056465686038   0.282935675270292   0.375000000000000   1.0000000
N2   N   0.888175071618760   0.277792243908867   0.375000000000000   1.0000000
N2   N   0.055544218215889   0.444440480737587   0.875000000000000   1.0000000
N2   N   0.222208857638915   0.944435634847664   0.875000000000000   1.0000000
N2   N   0.555547778032993   0.944440555683163   0.875000000000000   1.0000000
N2   N   0.388880037541376   0.444441277421747   0.875000000000000   1.0000000
N2   N   0.888884303177235   0.944440675541227   0.875000000000000   1.0000000
N2   N   0.055376022740362   0.944259597597638   0.375000000000000   1.0000000
N2   N   0.722216277413674   0.444442564191918   0.875000000000000   1.0000000
N2   N   0.389436668218739   0.945231483948890   0.375000000000000   1.0000000
N2   N   0.221385389807635   0.443904295842555   0.375000000000000   1.0000000
N2   N   0.222764594008003   0.611042828428540   0.375000000000000   1.0000000
N2   N   0.721700003268630   0.943773030948498   0.375000000000000   1.0000000
N2   N   0.889241443490013   0.444927166874298   0.375000000000000   1.0000000
N2   N   0.055542950944612   0.611104665084385   0.875000000000000   1.0000000
N2   N   0.222209741300739   0.111102465927610   0.875000000000000   1.0000000
N2   N   0.722216277413674   0.611107046555083   0.875000000000000   1.0000000
N2   N   0.555548255479637   0.111108198753040   0.875000000000000   1.0000000
N2   N   0.888884207447646   0.111108770390492   0.875000000000000   1.0000000
B2   B   0.110761303411986   0.055585993614666   0.375000000000000   1.0000000
B2   B   0.614783695714376   0.556494296214498   0.375000000000000   1.0000000
B2   B   0.444320519247330   0.056802998826284   0.375000000000000   1.0000000
B2   B   0.945910261111794   0.556035338176152   0.375000000000000   1.0000000
B2   B   0.777063404831158   0.055198369082247   0.375000000000000   1.0000000
B2   B   0.111114496311755   0.722223914822543   0.875000000000000   1.0000000
B2   B   0.444411889229522   0.722189409797673   0.875000000000000   1.0000000
B2   B   0.277776613205929   0.222233943565654   0.875000000000000   1.0000000
B2   B   0.777773749364905   0.722226520021187   0.875000000000000   1.0000000
B2   B   0.611079120636060   0.222213959907099   0.875000000000000   1.0000000
B2   B   0.944472279589761   0.222229671043585   0.875000000000000   1.0000000
B2   B   0.278283364559002   0.722110795838889   0.375000000000000   1.0000000
B2   B   0.109650198313358   0.221491765823343   0.375000000000000   1.0000000
B2   B   0.443632780563294   0.225490715417342   0.375000000000000   1.0000000
B2   B   0.611073047745337   0.720023081866150   0.375000000000000   1.0000000
B2   B   0.945910261111794   0.723208256268977   0.375000000000000   1.0000000
B2   B   0.777340982974431   0.222310880943903   0.375000000000000   1.0000000
B2   B   0.111119383978570   0.888907473536650   0.875000000000000   1.0000000
B2   B   0.444421525886546   0.888877429609938   0.875000000000000   1.0000000
B2   B   0.277776613205929   0.388876002973609   0.875000000000000   1.0000000
B2   B   0.611062480715340   0.388871171315917   0.875000000000000   1.0000000
B2   B   0.777783868835973   0.888898040147019   0.875000000000000   1.0000000
B2   B   0.944462645446988   0.388884362519258   0.875000000000000   1.0000000
B2   B   0.110761303411986   0.388508643130651   0.375000000000000   1.0000000
B2   B   0.278283364559002   0.889505902053434   0.375000000000000   1.0000000
B2   B   0.610697757837028   0.887911860565090   0.375000000000000   1.0000000
B2   B   0.944610015322551   0.889048042435513   0.375000000000000   1.0000000
B2   B   0.778736825236863   0.389215499911502   0.375000000000000   1.0000000
B2   B   0.277763987927693   0.555526473908364   0.875000000000000   1.0000000
B2   B   0.111129687082571   0.055580172983165   0.875000000000000   1.0000000
B2   B   0.611062480715340   0.555524642732756   0.875000000000000   1.0000000
B2   B   0.444411889229522   0.055555812765182   0.875000000000000   1.0000000
B2   B   0.944455977361681   0.555553559920911   0.875000000000000   1.0000000
B2   B   0.111841783567553   0.555570875195299   0.375000000000000   1.0000000
B2   B   0.777788594236207   0.055560963784770   0.875000000000000   1.0000000
B2   B   0.278032369508847   0.056680543614483   0.375000000000000   1.0000000
B2   B   0.443632780563294   0.551475398479281   0.375000000000000   1.0000000
B2   B   0.781024993920304   0.557179163626825   0.375000000000000   1.0000000
B2   B   0.610697757837028   0.056119230605276   0.375000000000000   1.0000000
B2   B   0.444391900416489   0.555501054805809   0.875000000000000   1.0000000
B2   B   0.943609985295220   0.055057285217175   0.375000000000000   1.0000000
B2   B   0.277764770573413   0.722207194236364   0.875000000000000   1.0000000
B2   B   0.111140080643720   0.222236706988526   0.875000000000000   1.0000000
B2   B   0.444391900416489   0.222224178944014   0.875000000000000   1.0000000
B2   B   0.611079120636060   0.722198494062292   0.875000000000000   1.0000000
B2   B   0.944455977361681   0.722235750774105   0.875000000000000   1.0000000
B2   B   0.777783868835973   0.222219162022285   0.875000000000000   1.0000000
B2   B   0.112095927214058   0.722714630273691   0.375000000000000   1.0000000
B2   B   0.444320519247330   0.720850853754381   0.375000000000000   1.0000000
B2   B   0.277103963190530   0.223355167513069   0.375000000000000   1.0000000
B2   B   0.778736825236863   0.722854658658682   0.375000000000000   1.0000000
B2   B   0.611073047745337   0.224383299212516   0.375000000000000   1.0000000
B2   B   0.943609985295220   0.221886033411379   0.375000000000000   1.0000000
B2   B   0.111129687082571   0.388882847432736   0.875000000000000   1.0000000
B2   B   0.277764770573413   0.888890909670384   0.875000000000000   1.0000000
B2   B   0.611094016869457   0.888877904408938   0.875000000000000   1.0000000
B2   B   0.444383110562103   0.388858221947716   0.875000000000000   1.0000000
B2   B   0.944462645446988   0.888911616261058   0.875000000000000   1.0000000
B2   B   0.111841783567553   0.889604241705573   0.375000000000000   1.0000000
B2   B   0.777773749364905   0.388880562677056   0.875000000000000   1.0000000
B2   B   0.444511334520434   0.888922333926878   0.375000000000000   1.0000000
B2   B   0.277103963190530   0.387082129010791   0.375000000000000   1.0000000
B2   B   0.278032369508847   0.554685159227700   0.375000000000000   1.0000000
B2   B   0.614783695714376   0.391622732833213   0.375000000000000   1.0000000
B2   B   0.777340982974431   0.888363435363850   0.375000000000000   1.0000000
B2   B   0.944610015322551   0.388895306220369   0.375000000000000   1.0000000
B2   B   0.111119383978570   0.555545243775246   0.875000000000000   1.0000000
B2   B   0.277763987927693   0.055570847352666   0.875000000000000   1.0000000
B2   B   0.777767642278913   0.555550487806134   0.875000000000000   1.0000000
B2   B   0.611094016869457   0.055549445793845   0.875000000000000   1.0000000
B2   B   0.944472279589761   0.055575941879516   0.875000000000000   1.0000000
B2   B   0.055605859964394   0.111168905394040   0.125005992736686   1.0000000
B2   B   0.555343623973289   0.611014794156427   0.125153807746039   1.0000000
B2   B   0.388859357042379   0.111172660600363   0.125085545268284   1.0000000
B2   B   0.888949679900903   0.611141506617127   0.124963161796573   1.0000000
B2   B   0.722177860218459   0.111072002172828   0.124997032089501   1.0000000
B2   B   0.055641479545401   0.777849462548448   0.625014960382952   1.0000000
B2   B   0.388878790362648   0.777755669946353   0.625001424831179   1.0000000
B2   B   0.222298195870998   0.277815764602167   0.624777585315812   1.0000000
B2   B   0.722156208557575   0.777780992374461   0.625011287949323   1.0000000
B2   B   0.555343623973289   0.277662163150197   0.624846192253957   1.0000000
B2   B   0.888902283870775   0.277751456707380   0.625015134992455   1.0000000
B2   B   0.222277662022663   0.777805497677995   0.124996675601432   1.0000000
B2   B   0.055605859964394   0.277770287903690   0.125005992736686   1.0000000
B2   B   0.388847864691893   0.277880715700823   0.125634705586172   1.0000000
B2   B   0.555472622203155   0.777750449005978   0.124991297577228   1.0000000
B2   B   0.888924261165353   0.777834255742362   0.124973315657848   1.0000000
B2   B   0.722156208557575   0.277708549516459   0.124988712050681   1.0000000
B2   B   0.055625660281044   0.944540950517123   0.625013239115686   1.0000000
B2   B   0.388878790362648   0.944456453749634   0.625001424831179   1.0000000
B2   B   0.222293058797916   0.444370873586677   0.624884128367463   1.0000000
B2   B   0.555161625110258   0.444247479221793   0.624777504356987   1.0000000
B2   B   0.722177860218459   0.944439191378962   0.625002967910503   1.0000000
B2   B   0.888924261165353   0.444423338756335   0.625026684342156   1.0000000
B2   B   0.055625660281044   0.444418043097249   0.124986760884323   1.0000000
B2   B   0.222280282483476   0.944539126143822   0.124999745831120   1.0000000
B2   B   0.555505299420969   0.944419316377151   0.124994888048922   1.0000000
B2   B   0.388847864691893   0.444300482324410   0.125634705586172   1.0000000
B2   B   0.888902283870775   0.944484160496730   0.124984865007539   1.0000000
B2   B   0.722133963918185   0.444384098624388   0.125061096480346   1.0000000
B2   B   0.222280282483476   0.611074489672983   0.625000254168884   1.0000000
B2   B   0.055605859964394   0.111168905394040   0.624994007263316   1.0000000
B2   B   0.555343623973289   0.611014794156427   0.624846192253957   1.0000000
B2   B   0.388859357042379   0.111172660600363   0.624914454731718   1.0000000
B2   B   0.888949679900903   0.611141506617127   0.625036838203432   1.0000000
B2   B   0.055641479545401   0.611125350330296   0.124985039617048   1.0000000
B2   B   0.722177860218459   0.111072002172828   0.625002967910503   1.0000000
B2   B   0.222293058797916   0.111255518544574   0.125115871632534   1.0000000
B2   B   0.388859357042379   0.611020029775358   0.125085545268284   1.0000000
B2   B   0.722133963918185   0.611083198627129   0.125061096480346   1.0000000
B2   B   0.555472622203155   0.111055506530519   0.124991297577228   1.0000000
B2   B   0.388859357042379   0.611020029775358   0.624914454731718   1.0000000
B2   B   0.888893792287896   0.111113562810619   0.124993812627399   1.0000000
B2   B   0.222277662022663   0.777805497677995   0.625003324398573   1.0000000
B2   B   0.055605859964394   0.277770287903690   0.624994007263316   1.0000000
B2   B   0.388847864691893   0.277880715700823   0.624365294413826   1.0000000
B2   B   0.555472622203155   0.777750449005978   0.625008702422771   1.0000000
B2   B   0.888924261165353   0.777834255742362   0.625026684342156   1.0000000
B2   B   0.722156208557575   0.277708549516459   0.625011287949323   1.0000000
B2   B   0.055641479545401   0.777849462548448   0.124985039617048   1.0000000
B2   B   0.388878790362648   0.777755669946353   0.124998575168825   1.0000000
B2   B   0.222298195870998   0.277815764602167   0.125222414684192   1.0000000
B2   B   0.722156208557575   0.777780992374461   0.124988712050681   1.0000000
B2   B   0.555343623973289   0.277662163150197   0.125153807746039   1.0000000
B2   B   0.888902283870775   0.277751456707380   0.124984865007539   1.0000000
B2   B   0.055625660281044   0.444418043097249   0.625013239115686   1.0000000
B2   B   0.222280282483476   0.944539126143822   0.625000254168884   1.0000000
B2   B   0.555505299420969   0.944419316377151   0.625005111951073   1.0000000
B2   B   0.388847864691893   0.444300482324410   0.624365294413826   1.0000000
B2   B   0.888902283870775   0.944484160496730   0.625015134992455   1.0000000
B2   B   0.055625660281044   0.944540950517123   0.124986760884323   1.0000000
B2   B   0.722133963918185   0.444384098624388   0.624938903519652   1.0000000
B2   B   0.388878790362648   0.944456453749634   0.124998575168825   1.0000000
B2   B   0.222293058797916   0.444370873586677   0.125115871632534   1.0000000
B2   B   0.222280282483476   0.611074489672983   0.124999745831120   1.0000000
B2   B   0.555161625110258   0.444247479221793   0.125222495643006   1.0000000
B2   B   0.722177860218459   0.944439191378962   0.124997032089501   1.0000000
B2   B   0.888924261165353   0.444423338756335   0.124973315657848   1.0000000
B2   B   0.055641479545401   0.611125350330296   0.625014960382952   1.0000000
B2   B   0.222293058797916   0.111255518544574   0.624884128367463   1.0000000
B2   B   0.722133963918185   0.611083198627129   0.624938903519652   1.0000000
B2   B   0.555472622203155   0.111055506530519   0.625008702422771   1.0000000
B2   B   0.888893792287896   0.111113562810619   0.625006187372597   1.0000000


