data_1
_audit_creation_method   'vasp2cif'
_cell_length_a    17.52789999999977
_cell_length_b    17.52789999999977
_cell_length_c    15.0
_cell_angle_alpha    90.0
_cell_angle_beta    90.0
_cell_angle_gamma    119.99999999999916

_symmetry_space_group_name_H-M    'P 1'
loop_
_atom_site_label
_atom_site_type_symbol
_atom_site_fract_x
_atom_site_fract_y
_atom_site_fract_z
_atom_site_occupancy
B2   B   0.905629161622035   0.953367256854000   0.110990558799606   1.0000000
B2   B   0.905664853773420   0.096279885594720   0.111037760631793   1.0000000
B2   B   0.905525160595372   0.238940056547516   0.111099538731186   1.0000000
B2   B   0.905153391229772   0.381377935254764   0.110993610688479   1.0000000
B2   B   0.904135403474948   0.523680782321476   0.110985436031433   1.0000000
B2   B   0.903846232845951   0.666245463763461   0.111054563798158   1.0000000
B2   B   0.904174453341474   0.809142544475925   0.111016818042192   1.0000000
B2   B   0.047053505203944   0.951591237934123   0.110984183066906   1.0000000
B2   B   0.047768021543499   0.095061066661108   0.110984992041185   1.0000000
B2   B   0.048372417046832   0.238467969091008   0.111012364116853   1.0000000
B2   B   0.048507317385058   0.381357638409550   0.111013775206434   1.0000000
B2   B   0.048097794371457   0.523743247905821   0.110983738459157   1.0000000
B2   B   0.047117796871524   0.666161741628721   0.110996059698961   1.0000000
B2   B   0.046884366302030   0.808739362281986   0.110970413176742   1.0000000
B2   B   0.189630398209018   0.951093099134903   0.111024752265219   1.0000000
B2   B   0.189617348699091   0.093581018923269   0.111050528121415   1.0000000
B2   B   0.190037221920713   0.236606467284819   0.111007025006312   1.0000000
B2   B   0.191428150971476   0.380841244157548   0.111016790261697   1.0000000
B2   B   0.192297733264693   0.523884966111015   0.111016703011526   1.0000000
B2   B   0.190488182305051   0.666384223464067   0.111067758343843   1.0000000
B2   B   0.189903272887185   0.808789119360917   0.110984084133709   1.0000000
B2   B   0.332787503635820   0.951531432861548   0.111027194765975   1.0000000
B2   B   0.332300669083218   0.093026335755661   0.111118088818155   1.0000000
B2   B   0.332686524629648   0.234432746681765   0.111060887055338   1.0000000
B2   B   0.332055534824436   0.376175244441974   0.111102788986658   1.0000000
B2   B   0.337354257462619   0.525144874073041   0.111077720860770   1.0000000
B2   B   0.333791149400255   0.667145880609492   0.111088643119396   1.0000000
B2   B   0.333112732949212   0.809537237037454   0.111069608482635   1.0000000
B2   B   0.476192725386673   0.953492543849129   0.110981781398225   1.0000000
B2   B   0.475852143784552   0.094771499960523   0.110979860318246   1.0000000
B2   B   0.474249440307221   0.235630545620971   0.111000570575334   1.0000000
B2   B   0.477046412368809   0.672989308983385   0.111014822912040   1.0000000
B2   B   0.476596341869702   0.812721377261561   0.111053151862699   1.0000000
B2   B   0.619846674178115   0.954500991467440   0.110997165621500   1.0000000
B2   B   0.619381436667366   0.096221713226999   0.110988164261684   1.0000000
B2   B   0.618947742861050   0.238234854029039   0.110979405543573   1.0000000
B2   B   0.618756517219076   0.381151117043239   0.111012420716519   1.0000000
B2   B   0.615138164012270   0.522728142881384   0.111161422170081   1.0000000
B2   B   0.622845233863916   0.672128670837720   0.111031889612256   1.0000000
B2   B   0.620727875367888   0.813178213254366   0.110998285667954   1.0000000
B2   B   0.763165665370857   0.954421335388151   0.110987365562753   1.0000000
B2   B   0.762718588481665   0.096609166122348   0.111070828186219   1.0000000
B2   B   0.762274681945837   0.238832213786684   0.111072578912319   1.0000000
B2   B   0.761848299253213   0.381200377589207   0.110996717389611   1.0000000
B2   B   0.760169000522213   0.523711676826882   0.111092860371400   1.0000000
B2   B   0.760451815133476   0.666189909907402   0.111100323978974   1.0000000
B2   B   0.763926592066792   0.812247501211627   0.111021428192946   1.0000000
N2   N   0.951970084446840   0.904422193165359   0.110973971616142   1.0000000
N2   N   0.952912132682303   0.048274529425754   0.110982460911457   1.0000000
N2   N   0.953229891000812   0.191389637640966   0.111048514499515   1.0000000
N2   N   0.953221362539108   0.334103483302574   0.111021301452035   1.0000000
N2   N   0.952568388972684   0.476492545265429   0.110940347608223   1.0000000
N2   N   0.951688525840585   0.618777708696982   0.110993367238281   1.0000000
N2   N   0.951562866964800   0.761305751789672   0.110997209939721   1.0000000
N2   N   0.094423519523813   0.903741715254673   0.110962270644024   1.0000000
N2   N   0.094576465124455   0.046673656101178   0.110979624150140   1.0000000
N2   N   0.095154484285883   0.190096063466407   0.110967601727346   1.0000000
N2   N   0.096249009698812   0.333855264642397   0.110987365379676   1.0000000
N2   N   0.096673837950816   0.476546925191309   0.110968903646425   1.0000000
N2   N   0.095224655096328   0.618821502218532   0.111006803437122   1.0000000
N2   N   0.094599867357655   0.761197534667268   0.110950607868350   1.0000000
N2   N   0.237454989289925   0.903752381205680   0.110982334741924   1.0000000
N2   N   0.237098527759392   0.045905491566981   0.111070862809104   1.0000000
N2   N   0.236836570188209   0.188369827714412   0.111023870046916   1.0000000
N2   N   0.237030461361253   0.331754998786365   0.111032950803953   1.0000000
N2   N   0.241295089054955   0.476509639243853   0.111018574619190   1.0000000
N2   N   0.238729557619933   0.619043424832491   0.111059437152262   1.0000000
N2   N   0.237824538003152   0.761465294389653   0.111038330989313   1.0000000
N2   N   0.380806374318205   0.904607852145156   0.111001700833287   1.0000000
N2   N   0.380487933841675   0.046326062085439   0.111030069821257   1.0000000
N2   N   0.379699062482104   0.187313355782607   0.111085527089084   1.0000000
N2   N   0.373127177042736   0.326488901314245   0.110954067945527   1.0000000
N2   N   0.379883994542430   0.470448526048698   0.111158053015130   1.0000000
N2   N   0.382276063159463   0.619950161881962   0.111016996143532   1.0000000
N2   N   0.381146229941818   0.762511973864578   0.111079430218534   1.0000000
N2   N   0.524469940492312   0.907173127337507   0.110996958687763   1.0000000
N2   N   0.524080797225863   0.048215059537225   0.110929406588361   1.0000000
N2   N   0.523781086516735   0.189496301525795   0.110954512910608   1.0000000
N2   N   0.527274635651609   0.327656788622941   0.110880413438797   1.0000000
N2   N   0.514467547929205   0.464291137958487   0.111258816615816   1.0000000
N2   N   0.533221545839435   0.639430244360994   0.111015979327740   1.0000000
N2   N   0.525356237637271   0.767548558853588   0.111002256188932   1.0000000
N2   N   0.668129598420596   0.907719915679772   0.110971093713454   1.0000000
N2   N   0.667511800194155   0.049276313744057   0.110998494486624   1.0000000
N2   N   0.667112731487433   0.191193884578429   0.111008249663115   1.0000000
N2   N   0.667030047809521   0.333536043155351   0.110972115239687   1.0000000
N2   N   0.664035361707145   0.476654207004234   0.111117639105080   1.0000000
N2   N   0.664001080949022   0.618099533957980   0.111066325237579   1.0000000
N2   N   0.669951162239247   0.766941722046046   0.110987070353113   1.0000000
N2   N   0.810954724944281   0.906863944565875   0.110971255598632   1.0000000
N2   N   0.810595304221128   0.049269485685207   0.111021378442438   1.0000000
N2   N   0.810321907400846   0.191627582523009   0.111097968356964   1.0000000
N2   N   0.809928056312759   0.333997482238275   0.111002759474387   1.0000000
N2   N   0.808552121941615   0.476474356243080   0.110992611447719   1.0000000
N2   N   0.808153632849843   0.618793012709719   0.111089289384586   1.0000000
N2   N   0.808876637674997   0.761777663451965   0.111036799337433   1.0000000
O2   O   0.472779127865396   0.509656439504190   0.110854467399653   1.0000000


