data_1
_audit_creation_method   'vasp2cif'
_cell_length_a    17.52789999999977
_cell_length_b    17.52789999999977
_cell_length_c    15.0
_cell_angle_alpha    90.0
_cell_angle_beta    90.0
_cell_angle_gamma    119.99999999999916

_symmetry_space_group_name_H-M    'P 1'
loop_
_atom_site_label
_atom_site_type_symbol
_atom_site_fract_x
_atom_site_fract_y
_atom_site_fract_z
_atom_site_occupancy
B2   B   0.907538329009482   0.956356394471691   0.110665367490197   1.0000000
B2   B   0.906791571457775   0.097893816130331   0.110520210190773   1.0000000
B2   B   0.905815319250262   0.239320641695870   0.110890921475283   1.0000000
B2   B   0.903976789056969   0.380799727827679   0.110714797890918   1.0000000
B2   B   0.898098951802382   0.521818025352885   0.110641530317765   1.0000000
B2   B   0.898707823818847   0.664074429383176   0.110985209761972   1.0000000
B2   B   0.905069790093657   0.811712892782841   0.110986203443848   1.0000000
B2   B   0.048156170938687   0.953500848012025   0.110662483744820   1.0000000
B2   B   0.049331605440986   0.096844605436570   0.110812093368182   1.0000000
B2   B   0.049071958304839   0.239383025383747   0.111382284467147   1.0000000
B2   B   0.047475662022384   0.381508876685422   0.111382385871815   1.0000000
B2   B   0.043899023654014   0.523157643516215   0.111055624939652   1.0000000
B2   B   0.042942008235056   0.664803544688011   0.110786892689395   1.0000000
B2   B   0.044199754890957   0.807789588704381   0.110740820845014   1.0000000
B2   B   0.188031205398775   0.950354024946590   0.110778606203014   1.0000000
B2   B   0.191868330014864   0.095997911388728   0.111139394663773   1.0000000
B2   B   0.191329002133049   0.237595972555909   0.112274913463083   1.0000000
B2   B   0.191028537091288   0.381246841035541   0.111860759380142   1.0000000
B2   B   0.188031288273031   0.523831686255779   0.111599591889069   1.0000000
B2   B   0.187241967220589   0.665643999878173   0.111192556701503   1.0000000
B2   B   0.186859526449915   0.807484360221169   0.110805827653394   1.0000000
B2   B   0.330289434416113   0.949532360723452   0.110718374299448   1.0000000
B2   B   0.330990342174242   0.091500057972206   0.111260169247960   1.0000000
B2   B   0.337543985703991   0.239413727975365   0.112227307558428   1.0000000
B2   B   0.332827712997202   0.378652776079610   0.109575467748387   1.0000000
B2   B   0.331257642809016   0.524087928431937   0.108155028449356   1.0000000
B2   B   0.331520509309410   0.666995891116055   0.111039294904684   1.0000000
B2   B   0.330344707774530   0.808374881613848   0.111020825253008   1.0000000
B2   B   0.474057430517332   0.951306225378880   0.110727191864200   1.0000000
B2   B   0.473857067555874   0.089467157293522   0.110879017832775   1.0000000
B2   B   0.473389161595591   0.226323079831327   0.111197088081992   1.0000000
B2   B   0.490051474586098   0.374412183855016   0.112963015347563   1.0000000
B2   B   0.476397809506502   0.675957408259333   0.111535836255987   1.0000000
B2   B   0.474626669541694   0.813290030522280   0.111355224880380   1.0000000
B2   B   0.619030101032443   0.955200450407954   0.110816601338984   1.0000000
B2   B   0.618433892431902   0.093443870743846   0.110892005487170   1.0000000
B2   B   0.618017310893958   0.231555986944341   0.110661566554933   1.0000000
B2   B   0.616906657384438   0.367085653725556   0.110501236119607   1.0000000
B2   B   0.624034654325913   0.684445374363730   0.112575462989111   1.0000000
B2   B   0.620267190076226   0.817682023762126   0.112297099654026   1.0000000
B2   B   0.764051714901759   0.957036388255240   0.110925045748509   1.0000000
B2   B   0.763000389633020   0.097004472495878   0.110772565832597   1.0000000
B2   B   0.762229170776267   0.237425023656707   0.110949642915457   1.0000000
B2   B   0.760607400471059   0.378266121515056   0.110499528730574   1.0000000
B2   B   0.748755087995632   0.519054091763277   0.111165888002137   1.0000000
B2   B   0.762018979797805   0.670425655146987   0.111229497606896   1.0000000
B2   B   0.766399871116605   0.817676924014989   0.111999429246029   1.0000000
In2   In   0.499937528481866   0.520614056057552   0.110072436129306   1.0000000
N2   N   0.953407363970303   0.907016232604238   0.110714294912893   1.0000000
N2   N   0.954722659671094   0.050690221232183   0.110376183648122   1.0000000
N2   N   0.954036174567365   0.192469736141522   0.110755214119444   1.0000000
N2   N   0.952494595608554   0.334115655616262   0.110872537335270   1.0000000
N2   N   0.948257240303240   0.475717057631586   0.110618282633400   1.0000000
N2   N   0.946942452780349   0.617111748864218   0.110684400575120   1.0000000
N2   N   0.948781371400533   0.760337015710912   0.110798000769682   1.0000000
N2   N   0.093046963771477   0.903374808962972   0.110683370165252   1.0000000
N2   N   0.096546833009020   0.048851374531258   0.110697522093949   1.0000000
N2   N   0.096433969078506   0.191297852137658   0.111496796857407   1.0000000
N2   N   0.095715395139426   0.334203069413430   0.111736948454866   1.0000000
N2   N   0.092742490424912   0.476423418842692   0.111516704637516   1.0000000
N2   N   0.091522184972338   0.618120494391076   0.110962044345728   1.0000000
N2   N   0.091393758591931   0.759998850967504   0.110781322681653   1.0000000
N2   N   0.235060270066850   0.902458151084447   0.110705727941594   1.0000000
N2   N   0.236366438408561   0.045445833620429   0.110942251716271   1.0000000
N2   N   0.240968654382058   0.191649460710053   0.111882056246488   1.0000000
N2   N   0.237520120843692   0.331412196794145   0.112638181068373   1.0000000
N2   N   0.235733788058463   0.476618822775861   0.111307094571954   1.0000000
N2   N   0.235744075805308   0.619052375922160   0.111361724113680   1.0000000
N2   N   0.234878694228886   0.760619059473438   0.110937361993061   1.0000000
N2   N   0.378535973006006   0.903183053676231   0.110687370835910   1.0000000
N2   N   0.378571642033942   0.043997674056388   0.110857130462383   1.0000000
N2   N   0.379423551857835   0.185846564473561   0.111880986985425   1.0000000
N2   N   0.389391866458011   0.336475200479437   0.112256020465246   1.0000000
N2   N   0.370081267775585   0.470132018421199   0.103182356141243   1.0000000
N2   N   0.380345788596362   0.620969129093035   0.109967704909737   1.0000000
N2   N   0.378937294320140   0.762506647011430   0.111350036136891   1.0000000
N2   N   0.523405339478611   0.907177268045938   0.110810952813748   1.0000000
N2   N   0.522924222853830   0.044982455554475   0.110752352931177   1.0000000
N2   N   0.522809269024842   0.182478408466493   0.110843534623263   1.0000000
N2   N   0.523687988176552   0.317327595379683   0.110954331108762   1.0000000
N2   N   0.569669328151986   0.461563422183182   0.114804154054433   1.0000000
N2   N   0.533570417082591   0.643528067175669   0.112650769179733   1.0000000
N2   N   0.524415278846333   0.770365913720798   0.112010724265636   1.0000000
N2   N   0.668786801206427   0.911117085979570   0.111150508500591   1.0000000
N2   N   0.667690963178687   0.048999389410126   0.110700594382660   1.0000000
N2   N   0.667128860581119   0.187381400596302   0.111030105691023   1.0000000
N2   N   0.667062139841383   0.325439088966639   0.110110185226920   1.0000000
N2   N   0.650917116237524   0.459773065928019   0.111320852413225   1.0000000
N2   N   0.671969509277141   0.639380052223310   0.109276216571011   1.0000000
N2   N   0.673240395177232   0.776615682455779   0.113307839381254   1.0000000
N2   N   0.813404103041772   0.911361517251249   0.111050766590073   1.0000000
N2   N   0.811774103382988   0.051164182566922   0.110521102761028   1.0000000
N2   N   0.810789521873971   0.191500030527708   0.110945912829148   1.0000000
N2   N   0.809430094705865   0.332428227537299   0.110706113279533   1.0000000
N2   N   0.801447610408131   0.473544544177248   0.110593942649049   1.0000000
N2   N   0.802091944661545   0.615946908206809   0.111342921776517   1.0000000
N2   N   0.810908867862288   0.766756368226530   0.111512013944260   1.0000000


