data_1
_audit_creation_method   'vasp2cif'
_cell_length_a    17.52789999999977
_cell_length_b    17.52789999999977
_cell_length_c    15.0
_cell_angle_alpha    90.0
_cell_angle_beta    90.0
_cell_angle_gamma    119.99999999999916

_symmetry_space_group_name_H-M    'P 1'
loop_
_atom_site_label
_atom_site_type_symbol
_atom_site_fract_x
_atom_site_fract_y
_atom_site_fract_z
_atom_site_occupancy
B2   B   0.904904954418756   0.952410892754631   0.111015490555236   1.0000000
B2   B   0.904742332328904   0.095204257016356   0.111045350088756   1.0000000
B2   B   0.904758823364317   0.238139099552547   0.111052938728974   1.0000000
B2   B   0.904596390981334   0.380950247844912   0.111010118694612   1.0000000
B2   B   0.904078401261168   0.523710807317415   0.111016556883045   1.0000000
B2   B   0.905066747176442   0.666622779450110   0.111076581700748   1.0000000
B2   B   0.904697708294325   0.809240373339400   0.111043763019574   1.0000000
B2   B   0.047470865697762   0.952183111817183   0.111012238534851   1.0000000
B2   B   0.047458749042065   0.095000825519107   0.111009752729667   1.0000000
B2   B   0.047769788163605   0.238157781401548   0.111008902110750   1.0000000
B2   B   0.047686971740790   0.381025168986482   0.111023219304238   1.0000000
B2   B   0.047109976368480   0.523781257417656   0.111018180160950   1.0000000
B2   B   0.047324098611889   0.666652774451142   0.111028523849133   1.0000000
B2   B   0.047565581676991   0.809528571706527   0.111002593228181   1.0000000
B2   B   0.190337454003647   0.952260170064130   0.111003048134658   1.0000000
B2   B   0.190311544601678   0.094841852505313   0.111050860000257   1.0000000
B2   B   0.190076930995948   0.237390231950411   0.111025230146499   1.0000000
B2   B   0.191166288799280   0.381232717442218   0.111012301186807   1.0000000
B2   B   0.190096666184171   0.524092918735587   0.111058143269173   1.0000000
B2   B   0.189675843041170   0.666924469337551   0.111055616502228   1.0000000
B2   B   0.190220299913177   0.809668781628435   0.111005525765485   1.0000000
B2   B   0.333266874629285   0.952538640606731   0.111024965566189   1.0000000
B2   B   0.333290918969540   0.094773637809235   0.111086006843821   1.0000000
B2   B   0.333372229301221   0.236767042360641   0.111072906161303   1.0000000
B2   B   0.332930673334228   0.377646931158807   0.111016587322234   1.0000000
B2   B   0.333772861336375   0.526769244301677   0.111015211980577   1.0000000
B2   B   0.331885948352591   0.668120288648810   0.111077667513911   1.0000000
B2   B   0.333034552284071   0.810260648858692   0.111055922797583   1.0000000
B2   B   0.476232160366152   0.952729659833429   0.111012851603974   1.0000000
B2   B   0.476337541689145   0.095446242170586   0.111012322010108   1.0000000
B2   B   0.476322104982131   0.238152574468015   0.111072325280717   1.0000000
B2   B   0.476621696310287   0.381048800183272   0.110982959031900   1.0000000
B2   B   0.473450794459779   0.666685639806028   0.110991412028559   1.0000000
B2   B   0.475952202709956   0.809988448728570   0.111054762819721   1.0000000
B2   B   0.619025677325445   0.952221217402282   0.111027103480178   1.0000000
B2   B   0.619134653633071   0.095457292728613   0.111009892420040   1.0000000
B2   B   0.619167095626519   0.238685945137968   0.111011907443021   1.0000000
B2   B   0.618914161831513   0.381834845160304   0.110984766237057   1.0000000
B2   B   0.622495782623211   0.666658681055679   0.110982911634240   1.0000000
B2   B   0.618805178038683   0.808576262409069   0.111009383282128   1.0000000
B2   B   0.761852282810270   0.952146788799012   0.111008187112033   1.0000000
B2   B   0.761885167176681   0.095229637846706   0.111055069270144   1.0000000
B2   B   0.761885352144797   0.238231782222422   0.111060117672496   1.0000000
B2   B   0.761716051742687   0.381061071496359   0.111008310580615   1.0000000
B2   B   0.761026131321903   0.523988423893018   0.111028042761136   1.0000000
B2   B   0.762643180203988   0.665929423230842   0.111054248747512   1.0000000
B2   B   0.762694215729891   0.809815744416814   0.111023072847802   1.0000000
C2   C   0.385961667419410   0.477381780484640   0.110925364998114   1.0000000
C2   C   0.478703903714835   0.522940690407429   0.110887685474642   1.0000000
C2   C   0.522900021630131   0.615220299871308   0.110837525980142   1.0000000
C2   C   0.619010188499720   0.524211154066971   0.111353542674327   1.0000000
N2   N   0.952251948635783   0.904522140073084   0.111009548821702   1.0000000
N2   N   0.952339040646952   0.047551863570754   0.111008224420448   1.0000000
N2   N   0.952429282158447   0.190533186163955   0.111026039490756   1.0000000
N2   N   0.952353919894354   0.333383146815265   0.111010584247533   1.0000000
N2   N   0.951767538406140   0.476122405419989   0.110984652534241   1.0000000
N2   N   0.952224974106815   0.618871377258030   0.111021808845652   1.0000000
N2   N   0.952436244263376   0.761831282698647   0.111031047042239   1.0000000
N2   N   0.095151761299446   0.904700463196283   0.110979139412049   1.0000000
N2   N   0.095102966509721   0.047386163726262   0.111010435412269   1.0000000
N2   N   0.094985335760740   0.190092197352237   0.110992210048122   1.0000000
N2   N   0.095679501915656   0.333563550370015   0.110999179887089   1.0000000
N2   N   0.094826923474981   0.476227161005351   0.111020213545915   1.0000000
N2   N   0.094607005922962   0.619005677235784   0.111016002394157   1.0000000
N2   N   0.095023224223126   0.761904609233888   0.110985338262067   1.0000000
N2   N   0.238013803608856   0.904869249906788   0.110987639761855   1.0000000
N2   N   0.238066008290387   0.047424241908399   0.111037911534569   1.0000000
N2   N   0.238140868516916   0.190026873058465   0.111033161792801   1.0000000
N2   N   0.237872812252803   0.332254971802398   0.111005292806923   1.0000000
N2   N   0.238367809241483   0.476905273267815   0.111023068071161   1.0000000
N2   N   0.236909589835766   0.619403345848829   0.111042864724028   1.0000000
N2   N   0.237722154592495   0.762221352290138   0.111032559974335   1.0000000
N2   N   0.380969473902244   0.905314551412424   0.111013114977418   1.0000000
N2   N   0.381090032886546   0.047645483730603   0.111023390305217   1.0000000
N2   N   0.381127594482147   0.189817754186777   0.111061435278684   1.0000000
N2   N   0.381538832775608   0.331874177885593   0.111017364242204   1.0000000
N2   N   0.378900003146122   0.621190754219703   0.111041303106376   1.0000000
N2   N   0.380597873224887   0.763098071477519   0.111042111547837   1.0000000
N2   N   0.523836900832169   0.905154110939214   0.111018888672539   1.0000000
N2   N   0.523959798483572   0.047955426177231   0.110977298056219   1.0000000
N2   N   0.523998473459274   0.190778977512311   0.111016393468351   1.0000000
N2   N   0.523939289059315   0.333591031859040   0.111022832807708   1.0000000
N2   N   0.525918673089117   0.477695122276893   0.110938105427407   1.0000000
N2   N   0.523229676137796   0.761959150047412   0.111022300114242   1.0000000
N2   N   0.666475278180974   0.904112255123551   0.110993937771584   1.0000000
N2   N   0.666664070313261   0.047620208763958   0.111015666670106   1.0000000
N2   N   0.666676811863699   0.190874102337770   0.111016263372930   1.0000000
N2   N   0.666632888605957   0.334228875687078   0.110987012546315   1.0000000
N2   N   0.665016488892714   0.477402564181382   0.110995385073968   1.0000000
N2   N   0.667729462910617   0.617080868670891   0.111021816844444   1.0000000
N2   N   0.667901021693355   0.761630644475036   0.110999798238424   1.0000000
N2   N   0.809855428041582   0.904889864897671   0.110993186519483   1.0000000
N2   N   0.809426034087380   0.047492370934130   0.111026311899443   1.0000000
N2   N   0.809471299626089   0.190531583950259   0.111039992537351   1.0000000
N2   N   0.809344164653556   0.333442912552281   0.111018060687095   1.0000000
N2   N   0.808455331736019   0.476107252224087   0.110997753081551   1.0000000
N2   N   0.810230842639123   0.618915314378609   0.111059274655153   1.0000000
N2   N   0.809417721149282   0.761341974386633   0.111026110897991   1.0000000


