data_1
_audit_creation_method   'vasp2cif'
_cell_length_a    17.52789999999977
_cell_length_b    17.52789999999977
_cell_length_c    15.0
_cell_angle_alpha    90.0
_cell_angle_beta    90.0
_cell_angle_gamma    119.99999999999916

_symmetry_space_group_name_H-M    'P 1'
loop_
_atom_site_label
_atom_site_type_symbol
_atom_site_fract_x
_atom_site_fract_y
_atom_site_fract_z
_atom_site_occupancy
B2   B   0.906382191670461   0.953418561296778   0.111031420692863   1.0000000
B2   B   0.904835345655137   0.095166675540858   0.111047618115955   1.0000000
B2   B   0.904323129831950   0.237675415155890   0.111038109069790   1.0000000
B2   B   0.904817308192902   0.380699777025930   0.110982633983904   1.0000000
B2   B   0.906365076224287   0.524062350694430   0.111034799047752   1.0000000
B2   B   0.905904315231176   0.667190267864921   0.111095189803826   1.0000000
B2   B   0.905679498348046   0.809682566752720   0.111067668094915   1.0000000
B2   B   0.047904915155156   0.952097106040852   0.111003237869632   1.0000000
B2   B   0.046583459899214   0.093619829525559   0.111031420692863   1.0000000
B2   B   0.045729676194568   0.236479848753860   0.111007793513309   1.0000000
B2   B   0.045646095418836   0.380320201110099   0.111011528616970   1.0000000
B2   B   0.046334349544546   0.524134104828151   0.110997135855608   1.0000000
B2   B   0.047764488792491   0.667149930751448   0.111023307648652   1.0000000
B2   B   0.047994424106170   0.809714990837129   0.110988768314583   1.0000000
B2   B   0.190287030358920   0.952007597089849   0.110988768314583   1.0000000
B2   B   0.190319454443292   0.094322522847964   0.111067668094915   1.0000000
B2   B   0.186049357537764   0.233128667029695   0.111106084148863   1.0000000
B2   B   0.185733647899865   0.378402447039420   0.111098009945451   1.0000000
B2   B   0.185558601927091   0.524116730435629   0.111063299625142   1.0000000
B2   B   0.189685372532448   0.667388880763652   0.111050585540856   1.0000000
B2   B   0.190189952370178   0.809812068825849   0.110991781677720   1.0000000
B2   B   0.332852090445587   0.952237532403480   0.111023307648652   1.0000000
B2   B   0.332811753332012   0.094097705964839   0.111095189803826   1.0000000
B2   B   0.333559652355784   0.237234068154829   0.111100510443997   1.0000000
B2   B   0.323519721313893   0.372062666120664   0.111022114166592   1.0000000
B2   B   0.322309126777919   0.522030824767322   0.110958672303755   1.0000000
B2   B   0.332137568644737   0.667864452552237   0.111041644138567   1.0000000
B2   B   0.332613140433330   0.810316648663544   0.111050585540856   1.0000000
B2   B   0.475867916368854   0.953667671651452   0.110997135855608   1.0000000
B2   B   0.475939670502519   0.093636944971687   0.111034799047752   1.0000000
B2   B   0.476061421795176   0.232951089678183   0.111027679966996   1.0000000
B2   B   0.479278978109649   0.373292295522451   0.111081375879653   1.0000000
B2   B   0.477971196429667   0.677692894419117   0.110958672303755   1.0000000
B2   B   0.475885290761395   0.814443419268894   0.111063299625142   1.0000000
B2   B   0.619681820085872   0.954355925777120   0.111011528616970   1.0000000
B2   B   0.619302244170036   0.095184713003051   0.110982633983904   1.0000000
B2   B   0.619761513039163   0.236387800127154   0.110966287990035   1.0000000
B2   B   0.621767424238637   0.378234596957399   0.110981240160128   1.0000000
B2   B   0.626709725673564   0.520723043087385   0.111081375879653   1.0000000
B2   B   0.627939355075311   0.676482299883131   0.111022114166592   1.0000000
B2   B   0.621599574156577   0.814268373296170   0.111098009945451   1.0000000
B2   B   0.763522172442162   0.954272345001400   0.111007793513310   1.0000000
B2   B   0.762326606040127   0.095678891364025   0.111038109069790   1.0000000
B2   B   0.762355837577028   0.237646183619034   0.111009282622729   1.0000000
B2   B   0.763614221068856   0.380240508156806   0.110966287990035   1.0000000
B2   B   0.767050931517805   0.523940599401856   0.111027679966996   1.0000000
B2   B   0.762767953041201   0.666442368841203   0.111100510443997   1.0000000
B2   B   0.766873354166293   0.813952663658185   0.111106084148863   1.0000000
N2   N   0.953010004265042   0.904864757959091   0.111016427883749   1.0000000
N2   N   0.952414050661522   0.047587351256489   0.111021877102246   1.0000000
N2   N   0.951359956785994   0.189787240382211   0.111014674651131   1.0000000
N2   N   0.951297657775006   0.332595807708493   0.110988626897822   1.0000000
N2   N   0.952214488632081   0.475851243550560   0.110972399688782   1.0000000
N2   N   0.952957441668098   0.619251809063863   0.111047171377422   1.0000000
N2   N   0.953126663546568   0.762155273460688   0.111039988806952   1.0000000
N2   N   0.095379748242745   0.904621653675257   0.110950483205836   1.0000000
N2   N   0.095136643958899   0.046991397652956   0.111016427883749   1.0000000
N2   N   0.092161835293471   0.187593576731289   0.111008334872587   1.0000000
N2   N   0.091742631658979   0.331401113849514   0.111005177716037   1.0000000
N2   N   0.091750642960332   0.475608917132780   0.110999777261860   1.0000000
N2   N   0.094642241638269   0.619346901975869   0.110998677412405   1.0000000
N2   N   0.095268452322778   0.762159468229216   0.110970568925809   1.0000000
N2   N   0.237841933688812   0.904732949595217   0.110970568925809   1.0000000
N2   N   0.237846128457291   0.046874738371445   0.111039988806952   1.0000000
N2   N   0.237675257654374   0.189248006275346   0.111090749339336   1.0000000
N2   N   0.229819165850783   0.326146762096948   0.111160442057063   1.0000000
N2   N   0.229073396191400   0.474495920103358   0.111113448672297   1.0000000
N2   N   0.236462336929787   0.619607820704217   0.111040984266466   1.0000000
N2   N   0.237542531425681   0.762458870492332   0.111030267694841   1.0000000
N2   N   0.380654499942101   0.905359160279679   0.110998677412405   1.0000000
N2   N   0.380749592854147   0.047043960249906   0.111047171377422   1.0000000
N2   N   0.380803380516043   0.188931095617118   0.111082615935636   1.0000000
N2   N   0.382125727231459   0.333310513601379   0.111052089210665   1.0000000
N2   N   0.352263789213578   0.461243343499691   0.110717405417933   1.0000000
N2   N   0.379669925137882   0.620331476780116   0.110955732929384   1.0000000
N2   N   0.380393581213788   0.763539064988200   0.111040984266466   1.0000000
N2   N   0.524392484784190   0.908250758957650   0.110999777261860   1.0000000
N2   N   0.524150158366428   0.047786913285954   0.110972399688783   1.0000000
N2   N   0.524497072991788   0.187659418489188   0.110988315139494   1.0000000
N2   N   0.525502848649594   0.326165036928588   0.110986541126120   1.0000000
N2   N   0.538758058417302   0.647737612704401   0.110717405417933   1.0000000
N2   N   0.525505481813639   0.770928005726605   0.111113448672297   1.0000000
N2   N   0.668600288067423   0.908258770259052   0.111005177716037   1.0000000
N2   N   0.667405594208514   0.048703744142965   0.110988626897822   1.0000000
N2   N   0.667425514610761   0.189807838397486   0.110961460611780   1.0000000
N2   N   0.668636032843094   0.331365369073852   0.110938026403403   1.0000000
N2   N   0.673836364988393   0.474498553267385   0.110986541126120   1.0000000
N2   N   0.666690888315564   0.617875674686525   0.111052089210665   1.0000000
N2   N   0.673854639820053   0.770182236067215   0.111160442057063   1.0000000
N2   N   0.812407825186732   0.907839566624561   0.111008334872587   1.0000000
N2   N   0.810214161535771   0.048641445131961   0.111014674651131   1.0000000
N2   N   0.809659302535064   0.190342099382926   0.111032578378642   1.0000000
N2   N   0.810193563520460   0.332575887306233   0.110961460611780   1.0000000
N2   N   0.812341983428811   0.475504328925218   0.110988315139494   1.0000000
N2   N   0.811070306300915   0.619198021401995   0.111082615935636   1.0000000
N2   N   0.810753395642608   0.762326144263671   0.111090749339336   1.0000000
O2   O   0.540618076683876   0.459383325233112   0.111145079580061   1.0000000
Se2   Se   0.468018166967232   0.531983854229758   0.110793446271156   1.0000000


