data_1
_audit_creation_method   'vasp2cif'
_cell_length_a    17.52789999999977
_cell_length_b    17.52789999999977
_cell_length_c    15.0
_cell_angle_alpha    90.0
_cell_angle_beta    90.0
_cell_angle_gamma    119.99999999999916

_symmetry_space_group_name_H-M    'P 1'
loop_
_atom_site_label
_atom_site_type_symbol
_atom_site_fract_x
_atom_site_fract_y
_atom_site_fract_z
_atom_site_occupancy
Ga2   Ga   0.490571421348231   0.509429980568766   0.111142593929339   1.0000000
B2   B   0.906568445160527   0.953591489565026   0.111015126727827   1.0000000
B2   B   0.904524097835772   0.095477923360224   0.111031039017532   1.0000000
B2   B   0.903922892986673   0.238211668991730   0.111037799585786   1.0000000
B2   B   0.904241263371979   0.381115612868544   0.110996817547916   1.0000000
B2   B   0.906122123657792   0.524250872620399   0.111051830290578   1.0000000
B2   B   0.908317428765193   0.667880826821839   0.111057608382956   1.0000000
B2   B   0.908909179013712   0.811780138010990   0.111028948457428   1.0000000
B2   B   0.048519644536940   0.951482376659063   0.111018207999948   1.0000000
B2   B   0.046410531630976   0.093433576035470   0.111015126727827   1.0000000
B2   B   0.045820776862619   0.236835350662945   0.110992771528950   1.0000000
B2   B   0.046446972457576   0.380323193984259   0.111018480123715   1.0000000
B2   B   0.048153740360191   0.523388907642045   0.111028998898953   1.0000000
B2   B   0.049567142216141   0.666318095075823   0.111065100824988   1.0000000
B2   B   0.049707338958580   0.809168513435386   0.111035380946565   1.0000000
B2   B   0.190833507760618   0.950294682237424   0.111035380946565   1.0000000
B2   B   0.188221883185013   0.091092842182283   0.111028948457428   1.0000000
B2   B   0.185906468095470   0.233075112406716   0.110991849664208   1.0000000
B2   B   0.187473912587325   0.378579514384336   0.111037029468684   1.0000000
B2   B   0.190354134513192   0.522606475930175   0.111058543693358   1.0000000
B2   B   0.191933827011047   0.665586433990371   0.111042670928727   1.0000000
B2   B   0.191793976001525   0.808208045194480   0.111015195754683   1.0000000
B2   B   0.333683926121174   0.950434878979863   0.111065100824988   1.0000000
B2   B   0.332121194375158   0.091684592430804   0.111057608382956   1.0000000
B2   B   0.327056932444419   0.229554029732823   0.111006101254480   1.0000000
B2   B   0.324142077653013   0.372708647712382   0.111002848468066   1.0000000
B2   B   0.332335534195898   0.520956381242020   0.111072473251932   1.0000000
B2   B   0.334981696115140   0.665020325081857   0.111079399411540   1.0000000
B2   B   0.334415587206627   0.808068194184955   0.111042670928727   1.0000000
B2   B   0.476613113554952   0.951848280835811   0.111028998898953   1.0000000
B2   B   0.475751148576599   0.093879897538205   0.111051830290578   1.0000000
B2   B   0.473862990016720   0.234671613971337   0.111020089913636   1.0000000
B2   B   0.462540391157177   0.364237726465432   0.111054877308318   1.0000000
B2   B   0.479045639954976   0.667666487001100   0.111072473251932   1.0000000
B2   B   0.477395545266823   0.809647886682812   0.111058543693358   1.0000000
B2   B   0.619678827211744   0.953555048738428   0.111018480123715   1.0000000
B2   B   0.618886408327459   0.095760757824017   0.110996817547916   1.0000000
B2   B   0.618290224862719   0.238455442669896   0.110989964683744   1.0000000
B2   B   0.618036689818465   0.381965331377539   0.110987317485064   1.0000000
B2   B   0.635764294730571   0.537461630039820   0.111054877308318   1.0000000
B2   B   0.627293373483621   0.675859943543986   0.111002848468066   1.0000000
B2   B   0.621422506811667   0.812528108608678   0.111037029468684   1.0000000
B2   B   0.763166670533057   0.954181244333385   0.110992771528950   1.0000000
B2   B   0.761790352204274   0.096079128209324   0.111037799585786   1.0000000
B2   B   0.761317372524838   0.238684648671166   0.111027958308178   1.0000000
B2   B   0.761546578526108   0.381711796333283   0.110989964683744   1.0000000
B2   B   0.765330407224667   0.526139031180279   0.111020089913636   1.0000000
B2   B   0.770447991463180   0.672945088752581   0.111006101254480   1.0000000
B2   B   0.766926908789288   0.814095553100533   0.110991849664208   1.0000000
N2   N   0.954247456345781   0.905772515007003   0.110999488034250   1.0000000
N2   N   0.952247742503127   0.047753659414879   0.111016412920978   1.0000000
N2   N   0.951254426073212   0.190301072721930   0.111003178670021   1.0000000
N2   N   0.951376079343058   0.333273785782496   0.110990693365670   1.0000000
N2   N   0.952670667414669   0.476172388956163   0.111002222442469   1.0000000
N2   N   0.954215836061468   0.619166985472820   0.111063392312921   1.0000000
N2   N   0.954843034118968   0.762538995911420   0.111036030842927   1.0000000
N2   N   0.096164264730307   0.903837137187692   0.111005876077801   1.0000000
N2   N   0.094228886910995   0.045753945572225   0.110999488034250   1.0000000
N2   N   0.092355697751514   0.187882965339413   0.110974258543751   1.0000000
N2   N   0.093126159105468   0.331925973566594   0.110994769987262   1.0000000
N2   N   0.095163694653444   0.475411900731387   0.111017485439328   1.0000000
N2   N   0.096591897345371   0.618373660705622   0.111032426883033   1.0000000
N2   N   0.096793016086469   0.761190485221848   0.111017948476822   1.0000000
N2   N   0.238810916696159   0.903208385831529   0.111017948476822   1.0000000
N2   N   0.237462406006586   0.045158367799038   0.111036030842927   1.0000000
N2   N   0.233846846253766   0.185441484087453   0.110989797646016   1.0000000
N2   N   0.231686941073052   0.327475850320594   0.110987761410061   1.0000000
N2   N   0.237027492622572   0.473995272921082   0.111051130728215   1.0000000
N2   N   0.239532053182264   0.617744034337518   0.111049883454492   1.0000000
N2   N   0.239373375122209   0.760628026795797   0.111010070319113   1.0000000
N2   N   0.381627741212377   0.903409504572627   0.111032426883033   1.0000000
N2   N   0.380834416445179   0.045785565856538   0.111063392312921   1.0000000
N2   N   0.379009067136951   0.187077785021013   0.111010103918115   1.0000000
N2   N   0.371997998279054   0.324393173855695   0.110974852086994   1.0000000
N2   N   0.371530183235673   0.465409919513414   0.110989514149327   1.0000000
N2   N   0.383176730706065   0.616824671211934   0.111065363885190   1.0000000
N2   N   0.382257367580482   0.760469348735742   0.111049883454492   1.0000000
N2   N   0.524589501185611   0.904837707264556   0.111017485439328   1.0000000
N2   N   0.523829012960833   0.047330734503336   0.111002222442469   1.0000000
N2   N   0.522992140425198   0.189821007600360   0.111000415188377   1.0000000
N2   N   0.521447073652259   0.332304207276159   0.110994196354354   1.0000000
N2   N   0.534591482403583   0.628471218682326   0.110989514149327   1.0000000
N2   N   0.526006128995915   0.762973909295433   0.111051130728215   1.0000000
N2   N   0.668075428350404   0.906875242812531   0.110994769987262   1.0000000
N2   N   0.666727616134501   0.048625322574949   0.110990693365670   1.0000000
N2   N   0.665987065659475   0.191383499287642   0.110986325308930   1.0000000
N2   N   0.665263944054495   0.334737457862502   0.110954424307086   1.0000000
N2   N   0.667697194640836   0.478554328264737   0.110994196354354   1.0000000
N2   N   0.675608228061303   0.628003403638945   0.110974852086994   1.0000000
N2   N   0.672525551596403   0.768314460844954   0.110987761410061   1.0000000
N2   N   0.812118436578586   0.907645704166484   0.110974258543751   1.0000000
N2   N   0.809700329196068   0.048746975844794   0.111003178670021   1.0000000
N2   N   0.808834202876374   0.191167199041625   0.111039612517229   1.0000000
N2   N   0.808617902630356   0.334014336257523   0.110986325308930   1.0000000
N2   N   0.810180394317638   0.477009261491800   0.111000415188377   1.0000000
N2   N   0.812923616896985   0.620992334781048   0.111010103918115   1.0000000
N2   N   0.814559917830546   0.766154555664240   0.110989797646016   1.0000000


