data_1
_audit_creation_method   'vasp2cif'
_cell_length_a    17.52789999999977
_cell_length_b    17.52789999999977
_cell_length_c    15.0
_cell_angle_alpha    90.0
_cell_angle_beta    90.0
_cell_angle_gamma    119.99999999999916

_symmetry_space_group_name_H-M    'P 1'
loop_
_atom_site_label
_atom_site_type_symbol
_atom_site_fract_x
_atom_site_fract_y
_atom_site_fract_z
_atom_site_occupancy
Si2   Si   0.396862010043876   0.482709667724791   0.110618796313361   1.0000000
B2   B   0.908000238544972   0.953071715096968   0.110696944374517   1.0000000
B2   B   0.908600346417053   0.096232735268714   0.110773493896701   1.0000000
B2   B   0.908535016898568   0.238851745789958   0.110738161556206   1.0000000
B2   B   0.907605184272612   0.381210133889965   0.110671412620206   1.0000000
B2   B   0.905225698783440   0.523443458876386   0.110707002341371   1.0000000
B2   B   0.904631618945125   0.665642155173664   0.110756687355710   1.0000000
B2   B   0.905366478838495   0.808358865668737   0.110689532221237   1.0000000
B2   B   0.049030165983197   0.951300151119838   0.110661698033816   1.0000000
B2   B   0.050170040372379   0.094509126790655   0.110753351304552   1.0000000
B2   B   0.051477023659139   0.238662420975160   0.110834141390043   1.0000000
B2   B   0.050832786665886   0.381644180740380   0.110710393488944   1.0000000
B2   B   0.048123762490782   0.524270846920906   0.110676844033939   1.0000000
B2   B   0.047750669138836   0.666463127174119   0.110743875041770   1.0000000
B2   B   0.048004387587213   0.808587770039317   0.110708927796175   1.0000000
B2   B   0.191359886394956   0.950872162401375   0.110687538863232   1.0000000
B2   B   0.192471564146302   0.093240766458038   0.110710744406354   1.0000000
B2   B   0.192135910671290   0.235128138126846   0.110826728165854   1.0000000
B2   B   0.195014934510148   0.381961745749166   0.110811900367700   1.0000000
B2   B   0.190063582705086   0.525611531028503   0.110734700637593   1.0000000
B2   B   0.190591376770058   0.667952327825056   0.110793260949819   1.0000000
B2   B   0.190955813131673   0.809436163592892   0.110732860074151   1.0000000
B2   B   0.334702264511073   0.951726237789984   0.110786355032026   1.0000000
B2   B   0.334907258199799   0.091343075731061   0.110723039314621   1.0000000
B2   B   0.336802865711284   0.231528271779354   0.110746098013429   1.0000000
B2   B   0.334085568384019   0.364828333183006   0.111023891312065   1.0000000
B2   B   0.331075888654581   0.535739875782724   0.110532082983383   1.0000000
B2   B   0.333696332123850   0.673382150181780   0.110840926786345   1.0000000
B2   B   0.334414513987447   0.812146149494446   0.110884962180471   1.0000000
B2   B   0.478698419565731   0.953577373351642   0.110824742299762   1.0000000
B2   B   0.478792279565241   0.093670373295140   0.110838332784049   1.0000000
B2   B   0.478804721272653   0.233539510861128   0.110716416433000   1.0000000
B2   B   0.485007728366824   0.378205389976500   0.110705400906674   1.0000000
B2   B   0.477317484909918   0.674321243359330   0.110743798671905   1.0000000
B2   B   0.478632749427902   0.813680267521761   0.110808476726710   1.0000000
B2   B   0.622601889427905   0.954494342283944   0.110724795262058   1.0000000
B2   B   0.622518347210253   0.095661267912099   0.110746895358581   1.0000000
B2   B   0.622385034786333   0.236974007373242   0.110787650285296   1.0000000
B2   B   0.622144465305510   0.378554385226018   0.110696919005136   1.0000000
B2   B   0.609037339357819   0.514492500057507   0.110665767783836   1.0000000
B2   B   0.627469936469410   0.673825164280153   0.110619599741597   1.0000000
B2   B   0.623093169403298   0.813278273358897   0.110690183465259   1.0000000
B2   B   0.765916741251040   0.954276114386616   0.110705593920187   1.0000000
B2   B   0.765805153722773   0.096414442853650   0.110689345736183   1.0000000
B2   B   0.765529960899912   0.238412468893273   0.110717729470601   1.0000000
B2   B   0.764774230221292   0.380567332207313   0.110734556860827   1.0000000
B2   B   0.761301149275091   0.522574269882945   0.110764506003143   1.0000000
B2   B   0.760478385694533   0.664021902391212   0.110676703983280   1.0000000
B2   B   0.766524657478406   0.812135820066096   0.110676537043787   1.0000000
N2   N   0.953824314052909   0.903873374272571   0.110653751401934   1.0000000
N2   N   0.955411060025824   0.047892829162151   0.110733393934559   1.0000000
N2   N   0.956224406563607   0.191356271294268   0.110786881610267   1.0000000
N2   N   0.955647443391456   0.333908772292915   0.110674101529568   1.0000000
N2   N   0.953267413423383   0.476264563297129   0.110637889987679   1.0000000
N2   N   0.952508717882388   0.618503700072623   0.110728780100331   1.0000000
N2   N   0.952705501769096   0.760784590602555   0.110700052610262   1.0000000
N2   N   0.096180525238495   0.903553759625645   0.110647937841620   1.0000000
N2   N   0.097214049367743   0.046384772084529   0.110678524331554   1.0000000
N2   N   0.097507155869081   0.189242644115040   0.110796263673222   1.0000000
N2   N   0.099276060074615   0.334208449107763   0.110784163848635   1.0000000
N2   N   0.095677453484804   0.476942044509499   0.110673361303292   1.0000000
N2   N   0.095494695546684   0.619435881541968   0.110711121430654   1.0000000
N2   N   0.095685265987548   0.761469001958950   0.110715054000927   1.0000000
N2   N   0.239344659458027   0.904165699247535   0.110703148446923   1.0000000
N2   N   0.239748445681990   0.045478958279816   0.110682372617532   1.0000000
N2   N   0.241034696726523   0.187967084330268   0.110742273400831   1.0000000
N2   N   0.239768430726251   0.329466810963282   0.110906682299380   1.0000000
N2   N   0.237577367573429   0.478672335601857   0.110674311702724   1.0000000
N2   N   0.238442004576463   0.621501769557156   0.110788607847283   1.0000000
N2   N   0.239016551319317   0.763025440579305   0.110803144216042   1.0000000
N2   N   0.383275950933125   0.906218089970999   0.110833630203125   1.0000000
N2   N   0.383435047466676   0.045809055990524   0.110784573563492   1.0000000
N2   N   0.383908263999956   0.185109904874750   0.110666265912890   1.0000000
N2   N   0.387921991735105   0.325257449363022   0.110843718347013   1.0000000
N2   N   0.382414139894230   0.629314424809394   0.110695429391868   1.0000000
N2   N   0.383186934372723   0.767163500589646   0.110892636915480   1.0000000
N2   N   0.527291047829124   0.907667596130210   0.110767585671582   1.0000000
N2   N   0.527247617514519   0.047861683396420   0.110798294209722   1.0000000
N2   N   0.527292494933697   0.188099047829290   0.110789068483349   1.0000000
N2   N   0.527511429652961   0.328142497825240   0.110632566437701   1.0000000
N2   N   0.506318369671298   0.548460804673041   0.110973940150473   1.0000000
N2   N   0.532252327726816   0.632509727002216   0.110781171025849   1.0000000
N2   N   0.527469699315709   0.767570787162889   0.110705118883445   1.0000000
N2   N   0.670669829733832   0.907516971200977   0.110697407802299   1.0000000
N2   N   0.670610034970707   0.049015715782673   0.110678995633158   1.0000000
N2   N   0.670418937981751   0.190440601206198   0.110738430983069   1.0000000
N2   N   0.669976746846707   0.332115656762277   0.110730782489590   1.0000000
N2   N   0.665238310988116   0.474067853162339   0.110717681924697   1.0000000
N2   N   0.664041605148512   0.615244752683516   0.110573290923511   1.0000000
N2   N   0.672365539495779   0.767012658988833   0.110612246931453   1.0000000
N2   N   0.813422234021388   0.906632920976818   0.110682449817141   1.0000000
N2   N   0.813469869210174   0.049060904562793   0.110705649431892   1.0000000
N2   N   0.813379931718814   0.191300126866238   0.110690686486052   1.0000000
N2   N   0.812629412704091   0.333423626781816   0.110692506141753   1.0000000
N2   N   0.810004767756659   0.475609755178283   0.110728580214790   1.0000000
N2   N   0.809076366439285   0.617586936473884   0.110737157823181   1.0000000
N2   N   0.809938828954749   0.760558716456835   0.110666143676795   1.0000000


