data_1
_audit_creation_method   'vasp2cif'
_cell_length_a    14.93631414619966
_cell_length_b    14.936314146199727
_cell_length_c    13.341276283792837
_cell_angle_alpha    90.0
_cell_angle_beta    90.0
_cell_angle_gamma    119.99999999999984

_symmetry_space_group_name_H-M    'P 1'
loop_
_atom_site_label
_atom_site_type_symbol
_atom_site_fract_x
_atom_site_fract_y
_atom_site_fract_z
_atom_site_occupancy
Al2   Al   0.438000098619518   0.385666715976421   0.375000000000000   1.0000000
Al2   Al   0.596161786151544   0.464747559742423   0.375000000000000   1.0000000
N2   N   0.111067940278407   0.055519911544775   0.125309928395611   1.0000000
N2   N   0.611238992104043   0.555877625831458   0.121909582537390   1.0000000
N2   N   0.444489297530931   0.055558483447471   0.125655610642610   1.0000000
N2   N   0.944397538035437   0.555530858843661   0.125734899878053   1.0000000
N2   N   0.777848595002030   0.055590964167624   0.125113024704523   1.0000000
N2   N   0.111098454895215   0.722215894114411   0.624314340532949   1.0000000
N2   N   0.444489297530931   0.722264147416812   0.624344389357525   1.0000000
N2   N   0.277634357163486   0.222125486106825   0.625538084362517   1.0000000
N2   N   0.777809757219166   0.722335441689177   0.625296217612624   1.0000000
N2   N   0.611179766965030   0.222155108891275   0.625282458673667   1.0000000
N2   N   0.944462648902439   0.222217743490741   0.624933928819531   1.0000000
N2   N   0.277798420985560   0.722236446361296   0.125708239910606   1.0000000
N2   N   0.111043802241158   0.222188567787223   0.124995988875376   1.0000000
N2   N   0.444451505946943   0.222201323318181   0.124525184912948   1.0000000
N2   N   0.611179766965030   0.722357991407146   0.124717541326405   1.0000000
N2   N   0.944397538035437   0.722200012525141   0.125734899878053   1.0000000
N2   N   0.777844403949060   0.222180369687224   0.125143908214516   1.0000000
N2   N   0.111100204653547   0.888875455471427   0.624415698893930   1.0000000
N2   N   0.444489336242856   0.888911334788103   0.624312686684608   1.0000000
N2   N   0.277634357163486   0.388842204390001   0.625538084362517   1.0000000
N2   N   0.611238992104043   0.388694699605811   0.628090417462540   1.0000000
N2   N   0.777844403949060   0.888997367595031   0.624856091785425   1.0000000
N2   N   0.944451451623250   0.388870302573447   0.624593968615952   1.0000000
N2   N   0.111067940278407   0.388881362066879   0.125309928395611   1.0000000
N2   N   0.277798420985560   0.888895307957430   0.125708239910606   1.0000000
N2   N   0.611180007198630   0.888961951474102   0.125444643758684   1.0000000
N2   N   0.443932263101636   0.388632798217435   0.122479916771913   1.0000000
N2   N   0.944451451623250   0.888914482383297   0.125406031384149   1.0000000
N2   N   0.777809757219166   0.388807648863428   0.124703782387466   1.0000000
N2   N   0.277779232579609   0.555565731723577   0.624435287714339   1.0000000
N2   N   0.111067940278407   0.055519911544775   0.624690071604273   1.0000000
N2   N   0.611238992104043   0.555877625831458   0.628090417462546   1.0000000
N2   N   0.444489297530931   0.055558483447471   0.624344389357525   1.0000000
N2   N   0.944397538035437   0.555530858843661   0.624265100121932   1.0000000
N2   N   0.111100204653546   0.555558082515480   0.125584301106008   1.0000000
N2   N   0.777848595002030   0.055590964167624   0.624886975295553   1.0000000
N2   N   0.277779232579609   0.055546834189355   0.125564712285678   1.0000000
N2   N   0.444451505946943   0.555583515962055   0.124525184912949   1.0000000
N2   N   0.777680918932855   0.555507126133275   0.125233025051849   1.0000000
N2   N   0.611180007198630   0.055551389057824   0.125444643758684   1.0000000
N2   N   0.444451505946943   0.555583515962055   0.625474815087056   1.0000000
N2   N   0.944462648902439   0.055578238745049   0.125066071180463   1.0000000
N2   N   0.277798420985560   0.722236446361296   0.624291760089562   1.0000000
N2   N   0.111043802241158   0.222188567787223   0.625004011124551   1.0000000
N2   N   0.444451505946943   0.222201323318180   0.625474815087056   1.0000000
N2   N   0.611179766965030   0.722357991407146   0.625282458673667   1.0000000
N2   N   0.944397538035437   0.722200012525141   0.624265100121932   1.0000000
N2   N   0.777844403949060   0.222180369687224   0.624856091785425   1.0000000
N2   N   0.111098454895215   0.722215894114411   0.125685659467169   1.0000000
N2   N   0.444489297530931   0.722264147416812   0.125655610642610   1.0000000
N2   N   0.277634357163486   0.222125486106818   0.124461915637407   1.0000000
N2   N   0.777809757219166   0.722335441689177   0.124703782387469   1.0000000
N2   N   0.611179766965030   0.222155108891275   0.124717541326405   1.0000000
N2   N   0.944462648902439   0.222217743490741   0.125066071180463   1.0000000
N2   N   0.111067940278406   0.388881362066879   0.624690071604273   1.0000000
N2   N   0.277798420985560   0.888895307957430   0.624291760089562   1.0000000
N2   N   0.611180007198630   0.888961951474102   0.624555356241200   1.0000000
N2   N   0.443932263101636   0.388632798217435   0.627520083228144   1.0000000
N2   N   0.944451451623250   0.888914482383297   0.624593968615952   1.0000000
N2   N   0.111100204653546   0.888875455471427   0.125584301106008   1.0000000
N2   N   0.777809757219166   0.388807648863428   0.625296217612621   1.0000000
N2   N   0.444489336242856   0.888911334788103   0.125687313315271   1.0000000
N2   N   0.277634357163486   0.388842204390000   0.124461915637407   1.0000000
N2   N   0.277779232579609   0.555565731723577   0.125564712285678   1.0000000
N2   N   0.611238992104043   0.388694699605811   0.121909582537389   1.0000000
N2   N   0.777844403949060   0.888997367595031   0.125143908214524   1.0000000
N2   N   0.944451451623250   0.388870302573447   0.125406031384149   1.0000000
N2   N   0.111100204653546   0.555558082515480   0.624415698893930   1.0000000
N2   N   0.277779232579609   0.055546834189355   0.624435287714339   1.0000000
N2   N   0.777680918932855   0.555507126133275   0.624766974948162   1.0000000
N2   N   0.611180007198630   0.055551389057815   0.624555356241200   1.0000000
N2   N   0.944462648902439   0.055578238745049   0.624933928819531   1.0000000
N2   N   0.056655148509652   0.111771260785063   0.375000000000000   1.0000000
N2   N   0.552574685764377   0.629635036622524   0.375000000000000   1.0000000
N2   N   0.384895472159102   0.099461954850580   0.375000000000000   1.0000000
N2   N   0.889187883760445   0.611260608546939   0.375000000000000   1.0000000
N2   N   0.723754287724734   0.109980278542848   0.375000000000000   1.0000000
N2   N   0.055522762273437   0.777758264862458   0.875000000000000   1.0000000
N2   N   0.388833557691302   0.777761115481526   0.875000000000000   1.0000000
N2   N   0.222189092883375   0.277761213108303   0.875000000000000   1.0000000
N2   N   0.722162564737859   0.777736419358246   0.875000000000000   1.0000000
N2   N   0.555475436897531   0.277723304254554   0.875000000000000   1.0000000
N2   N   0.888841482558285   0.277763234530544   0.875000000000000   1.0000000
N2   N   0.219205680135941   0.776269506734671   0.375000000000000   1.0000000
N2   N   0.056655148509652   0.278217221057972   0.375000000000000   1.0000000
N2   N   0.379496434063023   0.254560517696388   0.375000000000000   1.0000000
N2   N   0.554549250579451   0.786050564700056   0.375000000000000   1.0000000
N2   N   0.891715783367596   0.781323538874387   0.375000000000000   1.0000000
N2   N   0.724255390550663   0.273795402135287   0.375000000000000   1.0000000
N2   N   0.055514050665574   0.944414892568342   0.875000000000000   1.0000000
N2   N   0.388833557691302   0.944405775543137   0.875000000000000   1.0000000
N2   N   0.222180616571900   0.444438109966011   0.875000000000000   1.0000000
N2   N   0.555493930974146   0.444413632153736   0.875000000000000   1.0000000
N2   N   0.722163503340820   0.944410695650015   0.875000000000000   1.0000000
N2   N   0.888851314170966   0.444434873328907   0.875000000000000   1.0000000
N2   N   0.054603413697065   0.444738462402200   0.375000000000000   1.0000000
N2   N   0.218949426014139   0.940006088776530   0.375000000000000   1.0000000
N2   N   0.554756844479014   0.944045088906120   0.375000000000000   1.0000000
N2   N   0.379496434062972   0.458269249700037   0.375000000000000   1.0000000
N2   N   0.890740334400220   0.946905442808943   0.375000000000000   1.0000000
N2   N   0.729168834614135   0.441291740768587   0.375000000000000   1.0000000
N2   N   0.222173808449670   0.611100976904555   0.875000000000000   1.0000000
N2   N   0.055517890891866   0.111086652691515   0.875000000000000   1.0000000
N2   N   0.555475436897531   0.611085465976333   0.875000000000000   1.0000000
N2   N   0.388827370500806   0.111054734582940   0.875000000000000   1.0000000
N2   N   0.888867666229162   0.611100499781211   0.875000000000000   1.0000000
N2   N   0.053866513998847   0.610710319870013   0.375000000000000   1.0000000
N2   N   0.722163503340815   0.111086141024181   0.875000000000000   1.0000000
N2   N   0.217309850357386   0.103967872581414   0.375000000000000   1.0000000
N2   N   0.384895472159102   0.618766850641784   0.375000000000000   1.0000000
N2   N   0.729168834614135   0.621210427178827   0.375000000000000   1.0000000
N2   N   0.554549250579411   0.101832019212898   0.375000000000000   1.0000000
N2   N   0.388827370500806   0.611105969251217   0.875000000000000   1.0000000
N2   N   0.890786424515490   0.112059878924396   0.375000000000000   1.0000000
N2   N   0.222177801903981   0.777755567618735   0.875000000000000   1.0000000
N2   N   0.055517890891866   0.277764571533691   0.875000000000000   1.0000000
N2   N   0.388839854149952   0.277729161060190   0.875000000000000   1.0000000
N2   N   0.555489684606868   0.777750069921363   0.875000000000000   1.0000000
N2   N   0.888851314170966   0.777749774175338   0.875000000000000   1.0000000
N2   N   0.722162564737859   0.277759478712732   0.875000000000000   1.0000000
N2   N   0.053866513998847   0.776489527462286   0.375000000000000   1.0000000
N2   N   0.385977575337894   0.779441406123697   0.375000000000000   1.0000000
N2   N   0.223755367478938   0.278544350406155   0.375000000000000   1.0000000
N2   N   0.724255390550690   0.783793321748931   0.375000000000000   1.0000000
N2   N   0.552574685764396   0.256272982475541   0.375000000000000   1.0000000
N2   N   0.890740334400220   0.277168224924734   0.375000000000000   1.0000000
N2   N   0.055514050665574   0.444432491430723   0.875000000000000   1.0000000
N2   N   0.222173808449670   0.944406164878382   0.875000000000000   1.0000000
N2   N   0.555495189230458   0.944414261281851   0.875000000000000   1.0000000
N2   N   0.388839854149952   0.444444026423122   0.875000000000000   1.0000000
N2   N   0.888841482558285   0.944411581360960   0.875000000000000   1.0000000
N2   N   0.054603413697060   0.943198284628277   0.375000000000000   1.0000000
N2   N   0.722192663230211   0.444443136879007   0.875000000000000   1.0000000
N2   N   0.385977575337893   0.939869502547417   0.375000000000000   1.0000000
N2   N   0.217309850357386   0.446675311109291   0.375000000000000   1.0000000
N2   N   0.218949426014139   0.612276670571016   0.375000000000000   1.0000000
N2   N   0.723754287724734   0.947107342515251   0.375000000000000   1.0000000
N2   N   0.891715783367596   0.443725577826510   0.375000000000000   1.0000000
N2   N   0.055522762273437   0.611097830744282   0.875000000000000   1.0000000
N2   N   0.222180616571884   0.111075839939198   0.875000000000000   1.0000000
N2   N   0.722192663230211   0.611082859684808   0.875000000000000   1.0000000
N2   N   0.555489684606868   0.111072948018877   0.875000000000000   1.0000000
N2   N   0.888842819550320   0.111088076441820   0.875000000000000   1.0000000
B2   B   0.108798652415256   0.052921949076300   0.375000000000000   1.0000000
B2   B   0.616913918278535   0.588777098511936   0.375000000000000   1.0000000
B2   B   0.443079427674128   0.048649438923313   0.375000000000000   1.0000000
B2   B   0.943819977012647   0.554689271717604   0.375000000000000   1.0000000
B2   B   0.780164854577746   0.056749093955510   0.375000000000000   1.0000000
B2   B   0.111057166439377   0.722195249886490   0.875000000000000   1.0000000
B2   B   0.444391507213486   0.722154789687801   0.875000000000000   1.0000000
B2   B   0.277845692770698   0.222268077402937   0.875000000000000   1.0000000
B2   B   0.777654408361295   0.722081010636259   0.875000000000000   1.0000000
B2   B   0.611005723661989   0.222264598778092   0.875000000000000   1.0000000
B2   B   0.944411253471860   0.222219243916745   0.875000000000000   1.0000000
B2   B   0.275253909872928   0.722491252905158   0.375000000000000   1.0000000
B2   B   0.113094655838745   0.223213994586015   0.375000000000000   1.0000000
B2   B   0.441172985137596   0.208213610470225   0.375000000000000   1.0000000
B2   B   0.612205559585925   0.735585164015222   0.375000000000000   1.0000000
B2   B   0.943819977012647   0.722464038628480   0.375000000000000   1.0000000
B2   B   0.780107711260344   0.220415268931019   0.375000000000000   1.0000000
B2   B   0.111072792455517   0.888867663578716   0.875000000000000   1.0000000
B2   B   0.444390577712282   0.888861955522692   0.875000000000000   1.0000000
B2   B   0.277845692770698   0.388910948701118   0.875000000000000   1.0000000
B2   B   0.610980534000796   0.388917322723660   0.875000000000000   1.0000000
B2   B   0.777690509139033   0.888788398540772   0.875000000000000   1.0000000
B2   B   0.944380290885277   0.388888170566955   0.875000000000000   1.0000000
B2   B   0.108798652415257   0.389210036672305   0.375000000000000   1.0000000
B2   B   0.275253909872928   0.886095990301191   0.375000000000000   1.0000000
B2   B   0.612546534941509   0.893560585099457   0.375000000000000   1.0000000
B2   B   0.945398356675485   0.890778126783706   0.375000000000000   1.0000000
B2   B   0.782551209796547   0.386069683621738   0.375000000000000   1.0000000
B2   B   0.277776531736911   0.555536885195145   0.875000000000000   1.0000000
B2   B   0.111113681013735   0.055555236985084   0.875000000000000   1.0000000
B2   B   0.610980534000796   0.555396544610527   0.875000000000000   1.0000000
B2   B   0.444391507213486   0.055570050858934   0.875000000000000   1.0000000
B2   B   0.944361199979279   0.555533192444842   0.875000000000000   1.0000000
B2   B   0.108948237238015   0.555518741392833   0.375000000000000   1.0000000
B2   B   0.777712183975591   0.055522758654452   0.875000000000000   1.0000000
B2   B   0.274546290591020   0.049745888316357   0.375000000000000   1.0000000
B2   B   0.441172985137596   0.566292708000706   0.375000000000000   1.0000000
B2   B   0.779435508916576   0.556384421124943   0.375000000000000   1.0000000
B2   B   0.612546534941509   0.052319283175386   0.375000000000000   1.0000000
B2   B   0.444432225146236   0.555492348771080   0.875000000000000   1.0000000
B2   B   0.946372462516804   0.057256536107136   0.375000000000000   1.0000000
B2   B   0.277739964638717   0.722194587982901   0.875000000000000   1.0000000
B2   B   0.111141232752137   0.222237283042727   0.875000000000000   1.0000000
B2   B   0.444432225146236   0.222273209708454   0.875000000000000   1.0000000
B2   B   0.611005723661989   0.722074458217112   0.875000000000000   1.0000000
B2   B   0.944361199979279   0.722161340867825   0.875000000000000   1.0000000
B2   B   0.777690509139033   0.222235443931324   0.875000000000000   1.0000000
B2   B   0.108903816037011   0.721118574685234   0.375000000000000   1.0000000
B2   B   0.443079427674128   0.727763322084141   0.375000000000000   1.0000000
B2   B   0.273311973386008   0.213780519630138   0.375000000000000   1.0000000
B2   B   0.782551209796547   0.729814859508030   0.375000000000000   1.0000000
B2   B   0.612205559585925   0.209953728904058   0.375000000000000   1.0000000
B2   B   0.946372462516804   0.222449259742890   0.375000000000000   1.0000000
B2   B   0.111113681013735   0.388891777361937   0.875000000000000   1.0000000
B2   B   0.277739964638717   0.888878709989076   0.875000000000000   1.0000000
B2   B   0.611035684634919   0.888818060944082   0.875000000000000   1.0000000
B2   B   0.444510840858384   0.388922087095804   0.875000000000000   1.0000000
B2   B   0.944380290885277   0.888825453651680   0.875000000000000   1.0000000
B2   B   0.108948237238015   0.886762829178483   0.375000000000000   1.0000000
B2   B   0.777654408361295   0.388906731058348   0.875000000000000   1.0000000
B2   B   0.443444073510160   0.888388703421779   0.375000000000000   1.0000000
B2   B   0.273311973386008   0.392864787089135   0.375000000000000   1.0000000
B2   B   0.274546290591028   0.558133735608056   0.375000000000000   1.0000000
B2   B   0.616913918278520   0.361470153099877   0.375000000000000   1.0000000
B2   B   0.780107711260344   0.893025775662605   0.375000000000000   1.0000000
B2   B   0.945398356675485   0.387953563225286   0.375000000000000   1.0000000
B2   B   0.111072792455517   0.555538462210193   0.875000000000000   1.0000000
B2   B   0.277776531736911   0.055572979875081   0.875000000000000   1.0000000
B2   B   0.777643730648836   0.555488531991016   0.875000000000000   1.0000000
B2   B   0.611035684634919   0.055550957024334   0.875000000000000   1.0000000
B2   B   0.944411253471860   0.055525342888615   0.875000000000000   1.0000000
B2   B   0.055586979899517   0.111144685532141   0.125259654289441   1.0000000
B2   B   0.555701188502138   0.610920625401792   0.124226488952711   1.0000000
B2   B   0.389055744246174   0.111401271123968   0.125624011579060   1.0000000
B2   B   0.888554734367314   0.610944033850068   0.125796899930756   1.0000000
B2   B   0.722279958868122   0.111140947628900   0.125367329348318   1.0000000
B2   B   0.055450340570697   0.777737060594760   0.624235094594389   1.0000000
B2   B   0.388990058968517   0.777760584660855   0.624163512458846   1.0000000
B2   B   0.222287750578573   0.277810541955924   0.625127596958542   1.0000000
B2   B   0.722172378821041   0.777744277541114   0.624978817064601   1.0000000
B2   B   0.555701188502138   0.278113896433930   0.625773511047174   1.0000000
B2   B   0.888880354823709   0.277752052454828   0.624677593596701   1.0000000
B2   B   0.222242603775521   0.777787968554546   0.125764823909292   1.0000000
B2   B   0.055586979899517   0.277775627700765   0.125259654289441   1.0000000
B2   B   0.389010681753601   0.277988605285258   0.124118069450449   1.0000000
B2   B   0.555650956099798   0.777738292043425   0.125508976769694   1.0000000
B2   B   0.888729151050907   0.777717028807304   0.125457302491576   1.0000000
B2   B   0.722172378821041   0.277761434613212   0.125021182935366   1.0000000
B2   B   0.055530793996065   0.944463515868521   0.624427905624893   1.0000000
B2   B   0.388990058968517   0.944562807640996   0.624163512458846   1.0000000
B2   B   0.222282965987938   0.444404537188499   0.624608693949591   1.0000000
B2   B   0.555522788545084   0.444428060939207   0.621248700033480   1.0000000
B2   B   0.722279958868122   0.944472344572330   0.624632670651603   1.0000000
B2   B   0.888729151050907   0.444345455577042   0.624542697508296   1.0000000
B2   B   0.055530793996065   0.444400611460724   0.125572094374996   1.0000000
B2   B   0.222276086702251   0.944552312577554   0.125763098619930   1.0000000
B2   B   0.555643975579037   0.944488654456329   0.125679967206410   1.0000000
B2   B   0.389010681753601   0.444355409801727   0.124118069450446   1.0000000
B2   B   0.888880354823709   0.944461635702449   0.125322406403274   1.0000000
B2   B   0.721764404487116   0.444169756545352   0.124198239734304   1.0000000
B2   B   0.222276086702252   0.611057107458028   0.624236901380116   1.0000000
B2   B   0.055586979899517   0.111144685532141   0.624740345710537   1.0000000
B2   B   0.555701188502138   0.610920625401792   0.625773511047174   1.0000000
B2   B   0.389055744246174   0.111401271123968   0.624375988421063   1.0000000
B2   B   0.888554734367314   0.610944033850068   0.624203100069143   1.0000000
B2   B   0.055450340570697   0.611046613309297   0.125764905405542   1.0000000
B2   B   0.722279958868122   0.111140947628900   0.624632670651603   1.0000000
B2   B   0.222282965987938   0.111211762132759   0.125391306050462   1.0000000
B2   B   0.389055744246174   0.610987806455589   0.125624011579060   1.0000000
B2   B   0.721764404487116   0.610927981275172   0.124198239734306   1.0000000
B2   B   0.555650956099798   0.111245997389719   0.125508976769694   1.0000000
B2   B   0.389055744246174   0.610987806455589   0.624375988421063   1.0000000
B2   B   0.888931855953652   0.111132594643540   0.125167430435638   1.0000000
B2   B   0.222242603775521   0.777787968554546   0.624235176090620   1.0000000
B2   B   0.055586979899517   0.277775627700765   0.624740345710537   1.0000000
B2   B   0.389010681753601   0.277988605285258   0.625881930549642   1.0000000
B2   B   0.555650956099798   0.777738292043425   0.624491023230214   1.0000000
B2   B   0.888729151050907   0.777717028807304   0.624542697508296   1.0000000
B2   B   0.722172378821041   0.277761434613212   0.624978817064601   1.0000000
B2   B   0.055450340570697   0.777737060594760   0.125764905405542   1.0000000
B2   B   0.388990058968517   0.777760584660855   0.125836487541208   1.0000000
B2   B   0.222287750578573   0.277810541955924   0.124872403041381   1.0000000
B2   B   0.722172378821041   0.777744277541114   0.125021182935367   1.0000000
B2   B   0.555701188502138   0.278113896433930   0.124226488952711   1.0000000
B2   B   0.888880354823709   0.277752052454828   0.125322406403278   1.0000000
B2   B   0.055530793996065   0.444400611460724   0.624427905624893   1.0000000
B2   B   0.222276086702251   0.944552312577554   0.624236901380116   1.0000000
B2   B   0.555643975579037   0.944488654456329   0.624320032793542   1.0000000
B2   B   0.389010681753601   0.444355409801727   0.625881930549609   1.0000000
B2   B   0.888880354823709   0.944461635702449   0.624677593596701   1.0000000
B2   B   0.055530793996065   0.944463515868521   0.125572094374995   1.0000000
B2   B   0.721764404487116   0.444169756545352   0.625801760265722   1.0000000
B2   B   0.388990058968517   0.944562807640996   0.125836487541208   1.0000000
B2   B   0.222282965987938   0.444404537188499   0.125391306050462   1.0000000
B2   B   0.222276086702252   0.611057107458028   0.125763098619930   1.0000000
B2   B   0.555522788545084   0.444428060939207   0.128751299966569   1.0000000
B2   B   0.722279958868122   0.944472344572330   0.125367329348318   1.0000000
B2   B   0.888729151050907   0.444345455577042   0.125457302491576   1.0000000
B2   B   0.055450340570697   0.611046613309297   0.624235094594389   1.0000000
B2   B   0.222282965987938   0.111211762132759   0.624608693949591   1.0000000
B2   B   0.721764404487116   0.610927981275172   0.625801760265722   1.0000000
B2   B   0.555650956099798   0.111245997389719   0.624491023230214   1.0000000
B2   B   0.888931855953652   0.111132594643540   0.624832569564394   1.0000000


