data_1
_audit_creation_method   'vasp2cif'
_cell_length_a    14.93631414619966
_cell_length_b    14.936314146199727
_cell_length_c    13.341276283792837
_cell_angle_alpha    90.0
_cell_angle_beta    90.0
_cell_angle_gamma    119.99999999999984

_symmetry_space_group_name_H-M    'P 1'
loop_
_atom_site_label
_atom_site_type_symbol
_atom_site_fract_x
_atom_site_fract_y
_atom_site_fract_z
_atom_site_occupancy
Si2   Si   0.424448609690260   0.378890971511794   0.375000000000000   1.0000000
Si2   Si   0.572303720669289   0.452818527001309   0.375000000000000   1.0000000
N2   N   0.110980617685294   0.055479489604134   0.125110085003669   1.0000000
N2   N   0.611036451472635   0.555592329352457   0.119939371142310   1.0000000
N2   N   0.444364255753119   0.055520520366233   0.125055123187977   1.0000000
N2   N   0.944309454955582   0.555493843678692   0.125153784722741   1.0000000
N2   N   0.777705639278659   0.055519486305998   0.124987297975294   1.0000000
N2   N   0.110993751347290   0.722163542340309   0.624863153418114   1.0000000
N2   N   0.444364255753119   0.722177068720222   0.624944876812022   1.0000000
N2   N   0.277615287812621   0.222138189295658   0.626633349056030   1.0000000
N2   N   0.777667959643520   0.722183259339579   0.625906683281284   1.0000000
N2   N   0.611031798203498   0.222175387474425   0.625979538750744   1.0000000
N2   N   0.944343404571707   0.222171199280473   0.624984764221059   1.0000000
N2   N   0.277682841006774   0.722175422779726   0.125132046135163   1.0000000
N2   N   0.110962224229929   0.222147778781628   0.124723790566331   1.0000000
N2   N   0.444339135804178   0.222172457784251   0.122727944005320   1.0000000
N2   N   0.611031798203498   0.722189744062405   0.124020461249257   1.0000000
N2   N   0.944309454955582   0.722148944610228   0.125153784722741   1.0000000
N2   N   0.777701514496205   0.222166060048862   0.124868512475403   1.0000000
N2   N   0.110993762043198   0.888822429477814   0.624788290787944   1.0000000
N2   N   0.444366887229269   0.888850110281301   0.624847359544961   1.0000000
N2   N   0.277615287812621   0.388810431850295   0.626633349056030   1.0000000
N2   N   0.611036451472635   0.388777455453506   0.630060628857688   1.0000000
N2   N   0.777701514496205   0.888868787780670   0.625131487524596   1.0000000
N2   N   0.944331768317242   0.388834936581258   0.624875108384538   1.0000000
N2   N   0.110980617685294   0.388834461414487   0.125110085003669   1.0000000
N2   N   0.277682841006774   0.888840751560379   0.125132046135163   1.0000000
N2   N   0.611040082059983   0.888856347686967   0.125099505162378   1.0000000
N2   N   0.444068858493964   0.388701095913647   0.118594387106102   1.0000000
N2   N   0.944331768317242   0.888830165069314   0.125124891615463   1.0000000
N2   N   0.777667959643520   0.388818033637274   0.124093316718718   1.0000000
N2   N   0.277674928542750   0.555503534740482   0.625027873063221   1.0000000
N2   N   0.110980617685294   0.055479489604134   0.624889914996327   1.0000000
N2   N   0.611036451472635   0.555592329352457   0.630060628857688   1.0000000
N2   N   0.444364255753119   0.055520520366233   0.624944876812022   1.0000000
N2   N   0.944309454955582   0.555493843678692   0.624846215277261   1.0000000
N2   N   0.110993762043198   0.555504665898713   0.125211709212054   1.0000000
N2   N   0.777705639278659   0.055519486305998   0.625012702024703   1.0000000
N2   N   0.277674928542750   0.055504727135606   0.124972126936781   1.0000000
N2   N   0.444339135804178   0.555500011353264   0.122727944005320   1.0000000
N2   N   0.777620540221242   0.555476936777287   0.123664573268649   1.0000000
N2   N   0.611040082059983   0.055517067706342   0.125099505162378   1.0000000
N2   N   0.444339135804178   0.555500011353264   0.627272055994682   1.0000000
N2   N   0.944343404571707   0.055505538624571   0.125015235778943   1.0000000
N2   N   0.277682841006774   0.722175422779726   0.624867953864837   1.0000000
N2   N   0.110962224229929   0.222147778781628   0.625276209433668   1.0000000
N2   N   0.444339135804178   0.222172457784251   0.627272055994682   1.0000000
N2   N   0.611031798203498   0.722189744062405   0.625979538750744   1.0000000
N2   N   0.944309454955582   0.722148944610228   0.624846215277261   1.0000000
N2   N   0.777701514496205   0.222166060048862   0.625131487524596   1.0000000
N2   N   0.110993751347290   0.722163542340309   0.125136846581885   1.0000000
N2   N   0.444364255753119   0.722177068720222   0.125055123187977   1.0000000
N2   N   0.277615287812621   0.222138189295658   0.123366650943973   1.0000000
N2   N   0.777667959643520   0.722183259339579   0.124093316718718   1.0000000
N2   N   0.611031798203498   0.222175387474425   0.124020461249257   1.0000000
N2   N   0.944343404571707   0.222171199280473   0.125015235778943   1.0000000
N2   N   0.110980617685294   0.388834461414487   0.624889914996327   1.0000000
N2   N   0.277682841006774   0.888840751560379   0.624867953864837   1.0000000
N2   N   0.611040082059983   0.888856347686967   0.624900494837623   1.0000000
N2   N   0.444068858493964   0.388701095913647   0.631405612893901   1.0000000
N2   N   0.944331768317242   0.888830165069314   0.624875108384538   1.0000000
N2   N   0.110993762043198   0.888822429477814   0.125211709212054   1.0000000
N2   N   0.777667959643520   0.388818033637274   0.625906683281284   1.0000000
N2   N   0.444366887229269   0.888850110281301   0.125152640455037   1.0000000
N2   N   0.277615287812621   0.388810431850295   0.123366650943973   1.0000000
N2   N   0.277674928542750   0.555503534740482   0.124972126936781   1.0000000
N2   N   0.611036451472635   0.388777455453506   0.119939371142310   1.0000000
N2   N   0.777701514496205   0.888868787780670   0.124868512475403   1.0000000
N2   N   0.944331768317242   0.388834936581258   0.125124891615463   1.0000000
N2   N   0.110993762043198   0.555504665898713   0.624788290787944   1.0000000
N2   N   0.277674928542750   0.055504727135606   0.625027873063221   1.0000000
N2   N   0.777620540221242   0.555476936777287   0.626335426731348   1.0000000
N2   N   0.611040082059983   0.055517067706342   0.624900494837623   1.0000000
N2   N   0.944343404571707   0.055505538624571   0.624984764221059   1.0000000
N2   N   0.055068523631237   0.110741068445627   0.375000000000000   1.0000000
N2   N   0.555813053418279   0.623477714776360   0.375000000000000   1.0000000
N2   N   0.386968110763283   0.103876244876840   0.375000000000000   1.0000000
N2   N   0.891410785978414   0.612372059655877   0.375000000000000   1.0000000
N2   N   0.723264120024972   0.110300518935478   0.375000000000000   1.0000000
N2   N   0.055573376333081   0.777786568252806   0.875000000000000   1.0000000
N2   N   0.388897116025971   0.777788097257538   0.875000000000000   1.0000000
N2   N   0.222235069729048   0.277784201531192   0.875000000000000   1.0000000
N2   N   0.722234588175629   0.777785678222011   0.875000000000000   1.0000000
N2   N   0.555558430684586   0.277765285469064   0.875000000000000   1.0000000
N2   N   0.888904489116716   0.277787266504539   0.875000000000000   1.0000000
N2   N   0.221386832985055   0.777360083159196   0.375000000000000   1.0000000
N2   N   0.055068523631237   0.277660788518946   0.375000000000000   1.0000000
N2   N   0.375394027621432   0.255255247338485   0.375000000000000   1.0000000
N2   N   0.555483073635323   0.783222417719297   0.375000000000000   1.0000000
N2   N   0.893583055127410   0.782191762393082   0.375000000000000   1.0000000
N2   N   0.724671112967806   0.275322013803150   0.375000000000000   1.0000000
N2   N   0.055569653815689   0.944449007136187   0.875000000000000   1.0000000
N2   N   0.388897116025971   0.944442352101765   0.875000000000000   1.0000000
N2   N   0.222231209585755   0.444457749792974   0.875000000000000   1.0000000
N2   N   0.555573067405157   0.444453200369243   0.875000000000000   1.0000000
N2   N   0.722229590934721   0.944448472086986   0.875000000000000   1.0000000
N2   N   0.888912108988985   0.444456631942945   0.875000000000000   1.0000000
N2   N   0.055031989787927   0.445084725157579   0.375000000000000   1.0000000
N2   N   0.220870861731041   0.941677697028005   0.375000000000000   1.0000000
N2   N   0.555443901964787   0.944388617649056   0.375000000000000   1.0000000
N2   N   0.375394027621432   0.453472113616282   0.375000000000000   1.0000000
N2   N   0.890191078467167   0.946217927071069   0.375000000000000   1.0000000
N2   N   0.733446346086129   0.443737737412718   0.375000000000000   1.0000000
N2   N   0.222230739568105   0.611121951573220   0.875000000000000   1.0000000
N2   N   0.055569448366861   0.111115547430887   0.875000000000000   1.0000000
N2   N   0.555558430684586   0.611126478548857   0.875000000000000   1.0000000
N2   N   0.388891192874329   0.111095653823331   0.875000000000000   1.0000000
N2   N   0.888918264426792   0.611125798880068   0.875000000000000   1.0000000
N2   N   0.055974311092968   0.611680574429893   0.375000000000000   1.0000000
N2   N   0.722229590934721   0.111114452181075   0.875000000000000   1.0000000
N2   N   0.216170490804492   0.103326980634860   0.375000000000000   1.0000000
N2   N   0.386968110763283   0.616425199219783   0.375000000000000   1.0000000
N2   N   0.733446346086129   0.623041942006749   0.375000000000000   1.0000000
N2   N   0.555483073635323   0.105593989249359   0.375000000000000   1.0000000
N2   N   0.388891192874329   0.611128872384342   0.875000000000000   1.0000000
N2   N   0.889597111784540   0.111465222558942   0.375000000000000   1.0000000
N2   N   0.222233753497561   0.777783543415449   0.875000000000000   1.0000000
N2   N   0.055569448366861   0.277787234269309   0.875000000000000   1.0000000
N2   N   0.388894549462594   0.277762697950626   0.875000000000000   1.0000000
N2   N   0.555558718285127   0.777786511389342   0.875000000000000   1.0000000
N2   N   0.888912108988985   0.777788810379375   0.875000000000000   1.0000000
N2   N   0.722234588175629   0.277782243286953   0.875000000000000   1.0000000
N2   N   0.055974311092968   0.777627069996414   0.375000000000000   1.0000000
N2   N   0.387766741916534   0.779216338325937   0.375000000000000   1.0000000
N2   N   0.220430982206760   0.276882157770047   0.375000000000000   1.0000000
N2   N   0.724671112967806   0.782682432497995   0.375000000000000   1.0000000
N2   N   0.555813053418279   0.265668671975252   0.375000000000000   1.0000000
N2   N   0.890191078467167   0.277306484729430   0.375000000000000   1.0000000
N2   N   0.055569653815689   0.444453980012828   0.875000000000000   1.0000000
N2   N   0.222230739568105   0.944442121328221   0.875000000000000   1.0000000
N2   N   0.555561701456643   0.944447517394988   0.875000000000000   1.0000000
N2   N   0.388894549462594   0.444465184845304   0.875000000000000   1.0000000
N2   N   0.888904489116716   0.944450555945522   0.875000000000000   1.0000000
N2   N   0.055031989787927   0.943280597963674   0.375000000000000   1.0000000
N2   N   0.722252832627134   0.444459694117216   0.875000000000000   1.0000000
N2   N   0.387766741916534   0.941883736923934   0.375000000000000   1.0000000
N2   N   0.216170490804492   0.446176843502965   0.375000000000000   1.0000000
N2   N   0.220870861731041   0.612526498036373   0.375000000000000   1.0000000
N2   N   0.723264120024972   0.946296934422830   0.375000000000000   1.0000000
N2   N   0.893583055127410   0.444724626067658   0.375000000000000   1.0000000
N2   N   0.055573376333081   0.611120141413611   0.875000000000000   1.0000000
N2   N   0.222231209585755   0.111106793126115   0.875000000000000   1.0000000
N2   N   0.722252832627134   0.611126471843253   0.875000000000000   1.0000000
N2   N   0.555558718285127   0.111105540229117   0.875000000000000   1.0000000
N2   N   0.888901657069499   0.111117495201421   0.875000000000000   1.0000000
B2   B   0.107444853245518   0.052148913540372   0.375000000000000   1.0000000
B2   B   0.625050731073667   0.584795842261385   0.375000000000000   1.0000000
B2   B   0.444306801624449   0.051182233971171   0.375000000000000   1.0000000
B2   B   0.945898297792999   0.555789205123586   0.375000000000000   1.0000000
B2   B   0.779059917513305   0.056196625423320   0.375000000000000   1.0000000
B2   B   0.111117146756769   0.722225240045049   0.875000000000000   1.0000000
B2   B   0.444461344858896   0.722230957991047   0.875000000000000   1.0000000
B2   B   0.277825118105976   0.222238506994460   0.875000000000000   1.0000000
B2   B   0.777771350697226   0.722195674309934   0.875000000000000   1.0000000
B2   B   0.611115470793693   0.222244693825570   0.875000000000000   1.0000000
B2   B   0.944444492586134   0.222228287106109   0.875000000000000   1.0000000
B2   B   0.277032189835878   0.723018335677992   0.375000000000000   1.0000000
B2   B   0.109574877640381   0.221454105486855   0.375000000000000   1.0000000
B2   B   0.443527082348318   0.212844524271250   0.375000000000000   1.0000000
B2   B   0.612901700810855   0.731679674855359   0.375000000000000   1.0000000
B2   B   0.945898297792999   0.723442426002741   0.375000000000000   1.0000000
B2   B   0.779610957018933   0.220741675195562   0.375000000000000   1.0000000
B2   B   0.111118666298322   0.888885541534867   0.875000000000000   1.0000000
B2   B   0.444459961477232   0.888896647405279   0.875000000000000   1.0000000
B2   B   0.277825118105976   0.388919944444841   0.875000000000000   1.0000000
B2   B   0.611115684947120   0.388920284270140   0.875000000000000   1.0000000
B2   B   0.777775115925333   0.888872794383439   0.875000000000000   1.0000000
B2   B   0.944442780493993   0.388900284302608   0.875000000000000   1.0000000
B2   B   0.107444853245518   0.388629273038473   0.375000000000000   1.0000000
B2   B   0.277032189835878   0.887347187491218   0.375000000000000   1.0000000
B2   B   0.612355947690667   0.892123245630974   0.375000000000000   1.0000000
B2   B   0.945944844261311   0.891084262225122   0.375000000000000   1.0000000
B2   B   0.784956371244855   0.387214552142178   0.375000000000000   1.0000000
B2   B   0.277802203652821   0.555577881832476   0.875000000000000   1.0000000
B2   B   0.111123359885652   0.055553653962336   0.875000000000000   1.0000000
B2   B   0.611115684947120   0.555528734010309   0.875000000000000   1.0000000
B2   B   0.444461344858896   0.055563720201186   0.875000000000000   1.0000000
B2   B   0.944442106572811   0.555561529381932   0.875000000000000   1.0000000
B2   B   0.110460981334788   0.556026070706117   0.375000000000000   1.0000000
B2   B   0.777775781180517   0.055554557256926   0.875000000000000   1.0000000
B2   B   0.275668825742043   0.051184360143273   0.375000000000000   1.0000000
B2   B   0.443527082348318   0.564015891410405   0.375000000000000   1.0000000
B2   B   0.781378608172553   0.557355970752940   0.375000000000000   1.0000000
B2   B   0.612355947690667   0.053566035393024   0.375000000000000   1.0000000
B2   B   0.444483554290854   0.555575105967146   0.875000000000000   1.0000000
B2   B   0.944756711988852   0.056284386484596   0.375000000000000   1.0000000
B2   B   0.277792229169911   0.722232979113732   0.875000000000000   1.0000000
B2   B   0.111126844930141   0.222230089131735   0.875000000000000   1.0000000
B2   B   0.444483554290854   0.222241781657046   0.875000000000000   1.0000000
B2   B   0.611115470793693   0.722204110301449   0.875000000000000   1.0000000
B2   B   0.944442106572811   0.722213910524219   0.875000000000000   1.0000000
B2   B   0.777775115925333   0.222235654875223   0.875000000000000   1.0000000
B2   B   0.111000819585914   0.722167076459621   0.375000000000000   1.0000000
B2   B   0.444306801624449   0.726457900986613   0.375000000000000   1.0000000
B2   B   0.267853214745760   0.211213067275266   0.375000000000000   1.0000000
B2   B   0.784956371244855   0.731075152436007   0.375000000000000   1.0000000
B2   B   0.612901700810855   0.214555359288824   0.375000000000000   1.0000000
B2   B   0.944756711988852   0.221805658837590   0.375000000000000   1.0000000
B2   B   0.111123359885652   0.388903039256646   0.875000000000000   1.0000000
B2   B   0.277792229169911   0.888892583389508   0.875000000000000   1.0000000
B2   B   0.611116955413387   0.888885113336299   0.875000000000000   1.0000000
B2   B   0.444524468853300   0.388928901093314   0.875000000000000   1.0000000
B2   B   0.944442780493993   0.888875829524720   0.875000000000000   1.0000000
B2   B   0.110460981334788   0.887768243961999   0.375000000000000   1.0000000
B2   B   0.777771350697226   0.388909009720623   0.875000000000000   1.0000000
B2   B   0.444437383992472   0.888885358662902   0.375000000000000   1.0000000
B2   B   0.267853214745760   0.389973480803820   0.375000000000000   1.0000000
B2   B   0.275668825742043   0.557817798932108   0.375000000000000   1.0000000
B2   B   0.625050731073667   0.373588222145619   0.375000000000000   1.0000000
B2   B   0.779610957018933   0.892202615156699   0.375000000000000   1.0000000
B2   B   0.945944844261311   0.388193915369519   0.375000000000000   1.0000000
B2   B   0.111118666298322   0.555566458096780   0.875000000000000   1.0000000
B2   B   0.277802203652821   0.055557655153680   0.875000000000000   1.0000000
B2   B   0.777769635565671   0.555551484449509   0.875000000000000   1.0000000
B2   B   0.611116955413387   0.055565175410416   0.875000000000000   1.0000000
B2   B   0.944444492586134   0.055549538813361   0.875000000000000   1.0000000
B2   B   0.055396990331827   0.111016929316261   0.124903613886045   1.0000000
B2   B   0.555569420174941   0.610997604938905   0.122221160591629   1.0000000
B2   B   0.388855536757901   0.111133748185855   0.124327456204102   1.0000000
B2   B   0.888637878853960   0.610985606093650   0.124789837012614   1.0000000
B2   B   0.722153402567436   0.111080945419766   0.124980020736010   1.0000000
B2   B   0.055378543225022   0.777677936079531   0.624857234043913   1.0000000
B2   B   0.388826896439860   0.777735833154138   0.624896749219506   1.0000000
B2   B   0.222045827323193   0.277689580328264   0.626502872623220   1.0000000
B2   B   0.722130071455879   0.777716633711145   0.625685500837492   1.0000000
B2   B   0.555569420174941   0.277905148569378   0.627778839408373   1.0000000
B2   B   0.888763127408275   0.277723099020807   0.625017168601588   1.0000000
B2   B   0.222105990407509   0.777719661870422   0.125052029014177   1.0000000
B2   B   0.055396990331827   0.277713394348904   0.124903613886045   1.0000000
B2   B   0.388853175219921   0.277782631381773   0.121064552683578   1.0000000
B2   B   0.555520242711038   0.777721814394914   0.124780142870115   1.0000000
B2   B   0.888698174422805   0.777668345471983   0.124855025661981   1.0000000
B2   B   0.722130071455879   0.277746771078074   0.124314499162510   1.0000000
B2   B   0.055393742813231   0.944338295355573   0.624862453967142   1.0000000
B2   B   0.388826896439860   0.944424396619057   0.624896749219506   1.0000000
B2   B   0.222084928461014   0.444408009625404   0.625534440902331   1.0000000
B2   B   0.555478762210681   0.444406047772005   0.628878560904103   1.0000000
B2   B   0.722153402567436   0.944405790481000   0.625019979263993   1.0000000
B2   B   0.888698174422805   0.444363162284160   0.625144974338019   1.0000000
B2   B   0.055393742813231   0.444388780790991   0.125137546032859   1.0000000
B2   B   0.222106805535554   0.944377686968233   0.125094267810803   1.0000000
B2   B   0.555507255457617   0.944420294395474   0.125114841152565   1.0000000
B2   B   0.388853175219921   0.444403877171482   0.121064552683578   1.0000000
B2   B   0.888763127408275   0.944373361720811   0.124982831398409   1.0000000
B2   B   0.721950536055228   0.444318586509801   0.122604104242606   1.0000000
B2   B   0.222106805535554   0.611062451900652   0.624905732189194   1.0000000
B2   B   0.055396990331827   0.111016929316260   0.625096386113951   1.0000000
B2   B   0.555569420174941   0.610997604938905   0.627778839408373   1.0000000
B2   B   0.388855536757901   0.111133748185855   0.625672543795897   1.0000000
B2   B   0.888637878853960   0.610985606093650   0.625210162987385   1.0000000
B2   B   0.055378543225022   0.611033940478829   0.125142765956088   1.0000000
B2   B   0.722153402567436   0.111080945419766   0.625019979263993   1.0000000
B2   B   0.222084928461014   0.111010252168946   0.124465559097672   1.0000000
B2   B   0.388855536757901   0.611055121905388   0.124327456204102   1.0000000
B2   B   0.721950536055228   0.610965282878763   0.122604104242606   1.0000000
B2   B   0.555520242711038   0.111131761649462   0.124780142870115   1.0000000
B2   B   0.388855536757901   0.611055121905388   0.625672543795897   1.0000000
B2   B   0.888776334411850   0.111054833872597   0.124963936072522   1.0000000
B2   B   0.222105990407509   0.777719661870422   0.624947970985824   1.0000000
B2   B   0.055396990331827   0.277713394348904   0.625096386113951   1.0000000
B2   B   0.388853175219921   0.277782631381773   0.628935447316423   1.0000000
B2   B   0.555520242711038   0.777721814394914   0.625219857129883   1.0000000
B2   B   0.888698174422805   0.777668345471983   0.625144974338019   1.0000000
B2   B   0.722130071455879   0.277746771078074   0.625685500837492   1.0000000
B2   B   0.055378543225022   0.777677936079531   0.125142765956088   1.0000000
B2   B   0.388826896439860   0.777735833154138   0.125103250780496   1.0000000
B2   B   0.222045827323193   0.277689580328264   0.123497127376781   1.0000000
B2   B   0.722130071455879   0.777716633711145   0.124314499162510   1.0000000
B2   B   0.555569420174941   0.277905148569378   0.122221160591629   1.0000000
B2   B   0.888763127408275   0.277723099020807   0.124982831398409   1.0000000
B2   B   0.055393742813231   0.444388780790991   0.624862453967142   1.0000000
B2   B   0.222106805535554   0.944377686968233   0.624905732189194   1.0000000
B2   B   0.555507255457617   0.944420294395474   0.624885158847437   1.0000000
B2   B   0.388853175219921   0.444403877171482   0.628935447316423   1.0000000
B2   B   0.888763127408275   0.944373361720811   0.625017168601588   1.0000000
B2   B   0.055393742813231   0.944338295355573   0.125137546032859   1.0000000
B2   B   0.721950536055228   0.444318586509801   0.627395895757395   1.0000000
B2   B   0.388826896439860   0.944424396619057   0.125103250780496   1.0000000
B2   B   0.222084928461014   0.444408009625404   0.124465559097672   1.0000000
B2   B   0.222106805535554   0.611062451900652   0.125094267810803   1.0000000
B2   B   0.555478762210681   0.444406047772005   0.121121439095893   1.0000000
B2   B   0.722153402567436   0.944405790481000   0.124980020736010   1.0000000
B2   B   0.888698174422805   0.444363162284160   0.124855025661981   1.0000000
B2   B   0.055378543225022   0.611033940478829   0.624857234043913   1.0000000
B2   B   0.222084928461014   0.111010252168946   0.625534440902331   1.0000000
B2   B   0.721950536055228   0.610965282878763   0.627395895757395   1.0000000
B2   B   0.555520242711038   0.111131761649462   0.625219857129883   1.0000000
B2   B   0.888776334411850   0.111054833872597   0.625036063927474   1.0000000


