data_1
_audit_creation_method   'vasp2cif'
_cell_length_a    17.52789999999977
_cell_length_b    17.52789999999977
_cell_length_c    15.0
_cell_angle_alpha    90.0
_cell_angle_beta    90.0
_cell_angle_gamma    119.99999999999916

_symmetry_space_group_name_H-M    'P 1'
loop_
_atom_site_label
_atom_site_type_symbol
_atom_site_fract_x
_atom_site_fract_y
_atom_site_fract_z
_atom_site_occupancy
S2   S   0.508084941040983   0.491916460875950   0.111734721956259   1.0000000
B2   B   0.905888391144597   0.953258911621366   0.110921528699283   1.0000000
B2   B   0.904545283301659   0.095456737894302   0.110945340616429   1.0000000
B2   B   0.904147275928976   0.238238595735532   0.110941311978727   1.0000000
B2   B   0.904249000892660   0.381097187099551   0.110907755891255   1.0000000
B2   B   0.905211213694587   0.524031865211834   0.110986627493390   1.0000000
B2   B   0.906786696789631   0.667342341517175   0.111102817314193   1.0000000
B2   B   0.907345312396426   0.811050133793544   0.111015468050403   1.0000000
B2   B   0.048120423465004   0.951881597731063   0.110938531792527   1.0000000
B2   B   0.046743109574630   0.094113630051399   0.110921528699283   1.0000000
B2   B   0.046441916517448   0.237332406438942   0.110889152081988   1.0000000
B2   B   0.046855175969955   0.380562010702197   0.110908424285622   1.0000000
B2   B   0.047871769847611   0.523479895095993   0.110948324121888   1.0000000
B2   B   0.048789302881278   0.666380484704138   0.111039942829422   1.0000000
B2   B   0.048849653524038   0.809307916380750   0.111035051611624   1.0000000
B2   B   0.190694104815232   0.951152367672030   0.111035051611624   1.0000000
B2   B   0.188951887402518   0.092656708799570   0.111015468050403   1.0000000
B2   B   0.187408589483548   0.234665124833039   0.110957883888597   1.0000000
B2   B   0.188710643537311   0.379456503274497   0.110941177627718   1.0000000
B2   B   0.190553331873668   0.522743900216887   0.111013511119342   1.0000000
B2   B   0.191512275786636   0.665869222019405   0.111033850400292   1.0000000
B2   B   0.191313588292579   0.808688432903418   0.111003908931059   1.0000000
B2   B   0.333621536492818   0.951212718314682   0.111039942829422   1.0000000
B2   B   0.332659679679824   0.093215324406387   0.111102817314193   1.0000000
B2   B   0.329357695456680   0.232869094029083   0.111104120192511   1.0000000
B2   B   0.327657554697389   0.375287151623059   0.111172437387113   1.0000000
B2   B   0.333720414012409   0.521163437760082   0.111198799540995   1.0000000
B2   B   0.334692892822056   0.665309128374899   0.111125626353834   1.0000000
B2   B   0.334132799177664   0.808489745409346   0.111033850400292   1.0000000
B2   B   0.476522126101026   0.952130251348435   0.110948324121888   1.0000000
B2   B   0.475970155985101   0.094790807501388   0.110986627493390   1.0000000
B2   B   0.474793243482238   0.236961406304595   0.111072608432729   1.0000000
B2   B   0.467730971074406   0.373558109102101   0.111345357638284   1.0000000
B2   B   0.478838583436959   0.666281607184638   0.111198799540995   1.0000000
B2   B   0.477258120980146   0.809448689322399   0.111013511119342   1.0000000
B2   B   0.619440010493793   0.953146845226035   0.110908424285622   1.0000000
B2   B   0.618904834096424   0.095753020303272   0.110907755891255   1.0000000
B2   B   0.618405277557037   0.238737650656965   0.110974800927130   1.0000000
B2   B   0.617733880290070   0.382268140905934   0.111111045768861   1.0000000
B2   B   0.626443912093924   0.532271050122585   0.111345357638284   1.0000000
B2   B   0.624714869572896   0.672344466499595   0.111172437387113   1.0000000
B2   B   0.620545517921542   0.811291377658615   0.110941177627718   1.0000000
B2   B   0.762669614757019   0.953560104678513   0.110889152081988   1.0000000
B2   B   0.761763425460479   0.095854745267070   0.110941311978727   1.0000000
B2   B   0.761392625994665   0.238609395201332   0.110960330260542   1.0000000
B2   B   0.761264370539073   0.381596743639023   0.110974800927130   1.0000000
B2   B   0.763040614891466   0.525208777714703   0.111072608432729   1.0000000
B2   B   0.767132927166934   0.670644325740347   0.111104120192511   1.0000000
B2   B   0.765336896362986   0.812593431712399   0.110957883888597   1.0000000
N2   N   0.953613957762143   0.905575807012332   0.110915294580512   1.0000000
N2   N   0.952202313400679   0.047799088517327   0.110918922928577   1.0000000
N2   N   0.951545691354439   0.190415430413410   0.110916679212055   1.0000000
N2   N   0.951618190806971   0.333331945218446   0.110890341739690   1.0000000
N2   N   0.952437002031904   0.476206691455320   0.110903797346975   1.0000000
N2   N   0.953566458161684   0.619134885074034   0.111046520051732   1.0000000
N2   N   0.954012317313199   0.762387636440616   0.111054762909853   1.0000000
N2   N   0.095796363605684   0.904205038312323   0.110974791102789   1.0000000
N2   N   0.094425594905646   0.046387444155863   0.110915294580512   1.0000000
N2   N   0.093087974692562   0.188658061879750   0.110883419426375   1.0000000
N2   N   0.093728716200580   0.332398269680189   0.110860328917613   1.0000000
N2   N   0.095096311810138   0.475685766389592   0.110923077959955   1.0000000
N2   N   0.096141901218055   0.618622197395472   0.110987571428936   1.0000000
N2   N   0.096237165971842   0.761463126543014   0.111005674904600   1.0000000
N2   N   0.238538275374977   0.903764235946157   0.111005674904600   1.0000000
N2   N   0.237613765477362   0.045989084604736   0.111054762909853   1.0000000
N2   N   0.235022777386768   0.186883577161670   0.111001418957704   1.0000000
N2   N   0.233465228073995   0.328999730640548   0.110967710576246   1.0000000
N2   N   0.237201934310969   0.474637858980754   0.111010994219185   1.0000000
N2   N   0.239143879758161   0.618162160843520   0.111054093467637   1.0000000
N2   N   0.238951174214744   0.761050227703191   0.111010970867285   1.0000000
N2   N   0.381379204522498   0.903859500699936   0.110987571428936   1.0000000
N2   N   0.380866516844001   0.046434943756322   0.111046520051732   1.0000000
N2   N   0.379636849790077   0.188147419012293   0.111089257188908   1.0000000
N2   N   0.374744633507212   0.326419417660051   0.111199514122472   1.0000000
N2   N   0.372924440681452   0.467531004167514   0.111258514077945   1.0000000
N2   N   0.382651415683528   0.617349986234506   0.111200895439621   1.0000000
N2   N   0.381839241074514   0.760857522159816   0.111054093467637   1.0000000
N2   N   0.524315635527426   0.904905090107903   0.110923077959955   1.0000000
N2   N   0.523794710461691   0.047564399886122   0.110903797346975   1.0000000
N2   N   0.523194253268705   0.190348014076015   0.110984315797770   1.0000000
N2   N   0.521684208492192   0.333099452374111   0.111147439734123   1.0000000
N2   N   0.532470397749575   0.627076961236561   0.111258514077945   1.0000000
N2   N   0.525363542936250   0.762799467607001   0.111010994219185   1.0000000
N2   N   0.667603132236872   0.906272685717390   0.110860328917613   1.0000000
N2   N   0.666669456698580   0.048383211110999   0.110890341739690   1.0000000
N2   N   0.666149499908270   0.191206127940917   0.110922521910638   1.0000000
N2   N   0.665497742590057   0.334503659326940   0.110990777446537   1.0000000
N2   N   0.666901949542907   0.478317193424762   0.111147439734123   1.0000000
N2   N   0.673581984256903   0.625256768410858   0.111199514122472   1.0000000
N2   N   0.671001671276491   0.766536173844039   0.110967710576246   1.0000000
N2   N   0.811343340038305   0.906913427225458   0.110883419426375   1.0000000
N2   N   0.809585971504589   0.048455710563495   0.110916679212055   1.0000000
N2   N   0.809006953247521   0.190994448670506   0.110951582770823   1.0000000
N2   N   0.808795273977003   0.333851902008742   0.110922521910638   1.0000000
N2   N   0.809653387842012   0.476807148648341   0.110984315797770   1.0000000
N2   N   0.811853982905734   0.620364552127957   0.111089257188908   1.0000000
N2   N   0.813117824756350   0.764978624531210   0.111001418957704   1.0000000


