data_1
_audit_creation_method   'vasp2cif'
_cell_length_a    14.93631414619966
_cell_length_b    14.936314146199727
_cell_length_c    13.341276283792837
_cell_angle_alpha    90.0
_cell_angle_beta    90.0
_cell_angle_gamma    119.99999999999984

_symmetry_space_group_name_H-M    'P 1'
loop_
_atom_site_label
_atom_site_type_symbol
_atom_site_fract_x
_atom_site_fract_y
_atom_site_fract_z
_atom_site_occupancy
N2   N   0.112384183454985   0.056761989367446   0.125000000000000   1.0000000
N2   N   0.607277003224573   0.552028967987823   0.125000000000000   1.0000000
N2   N   0.444260305143460   0.055921711667790   0.125000000000000   1.0000000
N2   N   0.946757337474158   0.556003917657631   0.125000000000000   1.0000000
N2   N   0.777861426954741   0.055606158616056   0.125000000000000   1.0000000
N2   N   0.111110563872905   0.722219608825464   0.625000000000000   1.0000000
N2   N   0.444447054488065   0.722222849153261   0.625000000000000   1.0000000
N2   N   0.277776107197609   0.222221091422449   0.625000000000000   1.0000000
N2   N   0.777779190063215   0.722223096394911   0.625000000000000   1.0000000
N2   N   0.611113229161593   0.222220213498484   0.625000000000000   1.0000000
N2   N   0.944446094550770   0.222222784144282   0.625000000000000   1.0000000
N2   N   0.278092891675681   0.722509694654697   0.125000000000000   1.0000000
N2   N   0.112605750691972   0.222481921553206   0.125000000000000   1.0000000
N2   N   0.441555784838991   0.221412876086756   0.125000000000000   1.0000000
N2   N   0.610397849059321   0.721318249679151   0.125000000000000   1.0000000
N2   N   0.946792459927372   0.724230313885050   0.125000000000000   1.0000000
N2   N   0.777398636358148   0.221468946019682   0.125000000000000   1.0000000
N2   N   0.111110755207911   0.888891048871653   0.625000000000000   1.0000000
N2   N   0.444448545058734   0.888891861973022   0.625000000000000   1.0000000
N2   N   0.277779098167285   0.388889743859953   0.625000000000000   1.0000000
N2   N   0.611110797994097   0.388887520339652   0.625000000000000   1.0000000
N2   N   0.777782539573949   0.888891629640988   0.625000000000000   1.0000000
N2   N   0.944446723419108   0.388891295936019   0.625000000000000   1.0000000
N2   N   0.110875776922568   0.388750350174821   0.125000000000000   1.0000000
N2   N   0.278140090396339   0.889247158064205   0.125000000000000   1.0000000
N2   N   0.610998103811356   0.888797753402446   0.125000000000000   1.0000000
N2   N   0.944622802743547   0.889076197073630   0.125000000000000   1.0000000
N2   N   0.776511713577280   0.386561588236973   0.125000000000000   1.0000000
N2   N   0.277779059607470   0.555554610680523   0.625000000000000   1.0000000
N2   N   0.111109917255092   0.055555389959844   0.625000000000000   1.0000000
N2   N   0.611108793265272   0.555555795434868   0.625000000000000   1.0000000
N2   N   0.444449070775920   0.055555086258845   0.625000000000000   1.0000000
N2   N   0.944446838946863   0.555552609797438   0.625000000000000   1.0000000
N2   N   0.111861169072610   0.555533891959858   0.125000000000000   1.0000000
N2   N   0.777780685797291   0.055556465807332   0.625000000000000   1.0000000
N2   N   0.277718723120140   0.055420923785591   0.125000000000000   1.0000000
N2   N   0.443075153468493   0.555786147390459   0.125000000000000   1.0000000
N2   N   0.610882800647077   0.055683014359337   0.125000000000000   1.0000000
N2   N   0.444445648615385   0.555555144160755   0.625000000000000   1.0000000
N2   N   0.944914141312264   0.055800606929393   0.125000000000000   1.0000000
N2   N   0.277779601192523   0.722221449049695   0.625000000000000   1.0000000
N2   N   0.111110098047474   0.222220155520030   0.625000000000000   1.0000000
N2   N   0.444447276546316   0.222220245551406   0.625000000000000   1.0000000
N2   N   0.611112632035106   0.722221719201856   0.625000000000000   1.0000000
N2   N   0.944445475820627   0.722224474828678   0.625000000000000   1.0000000
N2   N   0.777780735733119   0.222222408759339   0.625000000000000   1.0000000
N2   N   0.112022780031463   0.722823791019258   0.125000000000000   1.0000000
N2   N   0.444277515340007   0.722583938993415   0.125000000000000   1.0000000
N2   N   0.281979956736538   0.224029850810138   0.125000000000000   1.0000000
N2   N   0.776281128160402   0.722832630136539   0.125000000000000   1.0000000
N2   N   0.609594754308821   0.222286986662923   0.125000000000000   1.0000000
N2   N   0.944856179822494   0.222227812291284   0.125000000000000   1.0000000
N2   N   0.111110647685092   0.388889193518074   0.625000000000000   1.0000000
N2   N   0.277781663505220   0.888890159610295   0.625000000000000   1.0000000
N2   N   0.611113039098710   0.888890766150226   0.625000000000000   1.0000000
N2   N   0.444444453383663   0.388890311982532   0.625000000000000   1.0000000
N2   N   0.944447143331588   0.888891845254469   0.625000000000000   1.0000000
N2   N   0.112063562690243   0.889993231132551   0.125000000000000   1.0000000
N2   N   0.777781453730350   0.388889263901331   0.625000000000000   1.0000000
N2   N   0.444536783435494   0.889293737620414   0.125000000000000   1.0000000
N2   N   0.277407699003163   0.389211284072952   0.125000000000000   1.0000000
N2   N   0.277561808965786   0.555639015351531   0.125000000000000   1.0000000
N2   N   0.608576041314855   0.388024771121728   0.125000000000000   1.0000000
N2   N   0.777694244651392   0.889449873393079   0.125000000000000   1.0000000
N2   N   0.944136295050008   0.388747972003801   0.125000000000000   1.0000000
N2   N   0.111110141682134   0.555552805897667   0.625000000000000   1.0000000
N2   N   0.277778679145494   0.055555666650255   0.625000000000000   1.0000000
N2   N   0.777777302905657   0.555554217334710   0.625000000000000   1.0000000
N2   N   0.611111987535930   0.055554953872088   0.625000000000000   1.0000000
N2   N   0.944447081203554   0.055555079713292   0.625000000000000   1.0000000
N2   N   0.055566114883650   0.111110216422005   0.374963924248321   1.0000000
N2   N   0.555540406831237   0.611094359163053   0.375057459688161   1.0000000
N2   N   0.388864050588978   0.111070048315530   0.374949464407670   1.0000000
N2   N   0.888950611343284   0.611144918035684   0.375214786905627   1.0000000
N2   N   0.722217884848468   0.111106180072726   0.374974279636008   1.0000000
N2   N   0.055571727149919   0.777781652543618   0.874993788813620   1.0000000
N2   N   0.388895642148948   0.777778401663611   0.875009134791195   1.0000000
N2   N   0.222246795538561   0.277780652723562   0.875024854228456   1.0000000
N2   N   0.722216765790890   0.777773231470971   0.875001138536908   1.0000000
N2   N   0.555536095452828   0.277760399795236   0.875113906777090   1.0000000
N2   N   0.888889420609879   0.277781466125178   0.875042309057827   1.0000000
N2   N   0.222230461674117   0.777767326345824   0.375012947113500   1.0000000
N2   N   0.055564779376716   0.277775475027809   0.374958472731778   1.0000000
N2   N   0.388895081714914   0.277743933615504   0.375516944408681   1.0000000
N2   N   0.555553039030992   0.777772629367572   0.374980899856306   1.0000000
N2   N   0.888883530996625   0.777768768446263   0.374920265180112   1.0000000
N2   N   0.722214027466290   0.277771668495825   0.374960408624097   1.0000000
N2   N   0.055554436384422   0.944440512659436   0.875059628828542   1.0000000
N2   N   0.388887303033223   0.944430816856694   0.875032391004423   1.0000000
N2   N   0.222230240403600   0.444439104870143   0.875030599799340   1.0000000
N2   N   0.555596624338018   0.444450248864234   0.874382545157454   1.0000000
N2   N   0.722222391429191   0.944443721457156   0.875005389611652   1.0000000
N2   N   0.888884987459862   0.444453448774527   0.875099972161566   1.0000000
N2   N   0.055551626977296   0.444441427158714   0.374970759174149   1.0000000
N2   N   0.222212527631357   0.944416060039267   0.374986206961637   1.0000000
N2   N   0.555556125688381   0.944443671495018   0.374983771389371   1.0000000
N2   N   0.388903581454829   0.444429427062392   0.375190696175733   1.0000000
N2   N   0.888891943812496   0.944441300525246   0.374972161192709   1.0000000
N2   N   0.722217523477211   0.444435430127006   0.374987640132804   1.0000000
N2   N   0.222228015853208   0.611106717061681   0.875015197050350   1.0000000
N2   N   0.055566114883650   0.111110216422005   0.875036075751679   1.0000000
N2   N   0.555540406831237   0.611094359163053   0.874942540311840   1.0000000
N2   N   0.388864050588978   0.111070048315530   0.875050535592330   1.0000000
N2   N   0.888950611343284   0.611144918035684   0.874785213094373   1.0000000
N2   N   0.055576171447326   0.611112224154654   0.375030808967278   1.0000000
N2   N   0.722217884848468   0.111106180072726   0.875025720363992   1.0000000
N2   N   0.222230356301100   0.111097321597449   0.374901162549009   1.0000000
N2   N   0.388892425465344   0.611101664162417   0.374964575663136   1.0000000
N2   N   0.722210896010888   0.611109950432628   0.375008149188182   1.0000000
N2   N   0.555545691075508   0.111101912095625   0.374923176564848   1.0000000
N2   N   0.388892425465344   0.611101664162417   0.875035424336864   1.0000000
N2   N   0.888895119402240   0.111109675361290   0.374975622905345   1.0000000
N2   N   0.222230461674117   0.777767326345824   0.874987052886500   1.0000000
N2   N   0.055564779376716   0.277775475027809   0.875041527268222   1.0000000
N2   N   0.388895081714914   0.277743933615504   0.874483055591319   1.0000000
N2   N   0.555553039030992   0.777772629367572   0.875019100143688   1.0000000
N2   N   0.888883530996625   0.777768768446263   0.875079734819888   1.0000000
N2   N   0.722214027466290   0.277771668495825   0.875039591375903   1.0000000
N2   N   0.055571727149919   0.777781652543618   0.375006211186380   1.0000000
N2   N   0.388895642148948   0.777778401663611   0.374990865208805   1.0000000
N2   N   0.222246795538561   0.277780652723562   0.374975145771544   1.0000000
N2   N   0.722216765790890   0.777773231470971   0.374998861463092   1.0000000
N2   N   0.555536095452828   0.277760399795236   0.374886093222910   1.0000000
N2   N   0.888889420609879   0.277781466125178   0.374957690942173   1.0000000
N2   N   0.055551626977296   0.444441427158714   0.875029240825851   1.0000000
N2   N   0.222212527631357   0.944416060039267   0.875013793038363   1.0000000
N2   N   0.555556125688381   0.944443671495018   0.875016228610629   1.0000000
N2   N   0.388903581454829   0.444429427062392   0.874809303824267   1.0000000
N2   N   0.888891943812496   0.944441300525246   0.875027838807290   1.0000000
N2   N   0.055554436384422   0.944440512659436   0.374940371171458   1.0000000
N2   N   0.722217523477211   0.444435430127006   0.875012359867196   1.0000000
N2   N   0.388887303033223   0.944430816856694   0.374967608995577   1.0000000
N2   N   0.222230240403600   0.444439104870143   0.374969400200661   1.0000000
N2   N   0.222228015853208   0.611106717061681   0.374984802949649   1.0000000
N2   N   0.555596624338018   0.444450248864234   0.375617454842546   1.0000000
N2   N   0.722222391429191   0.944443721457156   0.374994610388348   1.0000000
N2   N   0.888884987459862   0.444453448774527   0.374900027838434   1.0000000
N2   N   0.055576171447326   0.611112224154654   0.874969191032721   1.0000000
N2   N   0.222230356301100   0.111097321597449   0.875098837450992   1.0000000
N2   N   0.722210896010888   0.611109950432628   0.874991850811817   1.0000000
N2   N   0.555545691075508   0.111101912095625   0.875076823435152   1.0000000
N2   N   0.888895119402240   0.111109675361290   0.875024377094655   1.0000000
B2   B   0.111120105549216   0.055548592410921   0.374982041492183   1.0000000
B2   B   0.611076848836315   0.555485921023970   0.375151525476270   1.0000000
B2   B   0.444423239619206   0.055533614093846   0.374989383964559   1.0000000
B2   B   0.944457284190061   0.555591491105543   0.375005174151457   1.0000000
B2   B   0.777774958105381   0.055543675816578   0.375000856627272   1.0000000
B2   B   0.111112776724170   0.722214967494862   0.874987304920713   1.0000000
B2   B   0.444444323353203   0.722201824592569   0.875005985333504   1.0000000
B2   B   0.277867911841492   0.222263616804801   0.874859681616548   1.0000000
B2   B   0.777756405443468   0.722189391035733   0.875027559538412   1.0000000
B2   B   0.611088401381787   0.222229207562345   0.875015784682958   1.0000000
B2   B   0.944455459562270   0.222224460779264   0.875002480281769   1.0000000
B2   B   0.277782527008661   0.722214870852743   0.375004021712709   1.0000000
B2   B   0.111151031410357   0.222235412339450   0.374988355247589   1.0000000
B2   B   0.444409818782740   0.222237109627131   0.375143327682733   1.0000000
B2   B   0.611088762274661   0.722176052173138   0.374986592114636   1.0000000
B2   B   0.944449140412373   0.722202617986563   0.375003784271744   1.0000000
B2   B   0.777771528183423   0.222222529580524   0.375003109352237   1.0000000
B2   B   0.111104088527179   0.888862207611484   0.875004121166754   1.0000000
B2   B   0.444441167927713   0.888872766379464   0.874998854106156   1.0000000
B2   B   0.277850460420046   0.388907294923590   0.874949794094003   1.0000000
B2   B   0.611087386085324   0.388932880309048   0.874846634565501   1.0000000
B2   B   0.777764899783935   0.888864869728904   0.874996909821982   1.0000000
B2   B   0.944447486925679   0.388905352119748   0.875017687110603   1.0000000
B2   B   0.111131797030384   0.388899732865262   0.374996135036338   1.0000000
B2   B   0.277769182697991   0.888863824315333   0.375010974289753   1.0000000
B2   B   0.611104843367433   0.888869477164578   0.374997383643613   1.0000000
B2   B   0.444505665299043   0.388878454421426   0.375067695169361   1.0000000
B2   B   0.944432457030888   0.888864368210223   0.374976954774226   1.0000000
B2   B   0.777770628718488   0.388913833400221   0.374977052865561   1.0000000
B2   B   0.277792834240982   0.555552856391728   0.875000578759968   1.0000000
B2   B   0.111120105549216   0.055548592410921   0.875017958507817   1.0000000
B2   B   0.611076848836315   0.555485921023970   0.874848474523730   1.0000000
B2   B   0.444423239619206   0.055533614093846   0.875010616035440   1.0000000
B2   B   0.944457284190061   0.555591491105543   0.874994825848543   1.0000000
B2   B   0.111119091581581   0.555567258523064   0.375001800422623   1.0000000
B2   B   0.777774958105381   0.055543675816578   0.874999143372728   1.0000000
B2   B   0.277767856979973   0.055525200058206   0.375016087326231   1.0000000
B2   B   0.444452649337179   0.555509264304458   0.375045187299054   1.0000000
B2   B   0.777807424512523   0.555580739885757   0.374752241390154   1.0000000
B2   B   0.611103715432371   0.055543489949839   0.375000029994942   1.0000000
B2   B   0.444452649337179   0.555509264304458   0.874954812700946   1.0000000
B2   B   0.944450852375345   0.055547723173020   0.374999663094329   1.0000000
B2   B   0.277782527008661   0.722214870852743   0.874995978287292   1.0000000
B2   B   0.111151031410357   0.222235412339450   0.875011644752411   1.0000000
B2   B   0.444409818782740   0.222237109627131   0.874856672317267   1.0000000
B2   B   0.611088762274661   0.722176052173138   0.875013407885365   1.0000000
B2   B   0.944449140412373   0.722202617986563   0.874996215728256   1.0000000
B2   B   0.777771528183423   0.222222529580524   0.874996890647763   1.0000000
B2   B   0.111112776724170   0.722214967494862   0.375012695079287   1.0000000
B2   B   0.444444323353203   0.722201824592569   0.374994014666496   1.0000000
B2   B   0.277867911841492   0.222263616804801   0.375140318383452   1.0000000
B2   B   0.777756405443468   0.722189391035733   0.374972440461588   1.0000000
B2   B   0.611088401381787   0.222229207562345   0.374984215317043   1.0000000
B2   B   0.944455459562270   0.222224460779264   0.374997519718231   1.0000000
B2   B   0.111131797030384   0.388899732865262   0.875003864963661   1.0000000
B2   B   0.277769182697991   0.888863824315333   0.874989025710247   1.0000000
B2   B   0.611104843367433   0.888869477164578   0.875002616356387   1.0000000
B2   B   0.444505665299043   0.388878454421426   0.874932304830639   1.0000000
B2   B   0.944432457030888   0.888864368210223   0.875023045225774   1.0000000
B2   B   0.111104088527179   0.888862207611484   0.374995878833246   1.0000000
B2   B   0.777770628718488   0.388913833400221   0.875022947134439   1.0000000
B2   B   0.444441167927713   0.888872766379464   0.375001145893844   1.0000000
B2   B   0.277850460420046   0.388907294923590   0.375050205906003   1.0000000
B2   B   0.277792834240982   0.555552856391728   0.374999421240032   1.0000000
B2   B   0.611087386085324   0.388932880309048   0.375153365434499   1.0000000
B2   B   0.777764899783935   0.888864869728904   0.375003090178017   1.0000000
B2   B   0.944447486925679   0.388905352119748   0.374982312889397   1.0000000
B2   B   0.111119091581581   0.555567258523064   0.874998199577377   1.0000000
B2   B   0.277767856979973   0.055525200058206   0.874983912673769   1.0000000
B2   B   0.777807424512523   0.555580739885757   0.875247758609847   1.0000000
B2   B   0.611103715432371   0.055543489949839   0.874999970005059   1.0000000
B2   B   0.944450852375345   0.055547723173020   0.875000336905671   1.0000000
B2   B   0.056166822447840   0.111503896691008   0.125000000000000   1.0000000
B2   B   0.553406417594860   0.609366207547259   0.125000000000000   1.0000000
B2   B   0.388016683895288   0.110645680563093   0.125000000000000   1.0000000
B2   B   0.893605518760088   0.613515538036000   0.125000000000000   1.0000000
B2   B   0.722032622331115   0.110701697058405   0.125000000000000   1.0000000
B2   B   0.055549605520742   0.777773157393082   0.625000000000000   1.0000000
B2   B   0.388892027306548   0.777773261799643   0.625000000000000   1.0000000
B2   B   0.222233525364781   0.277784975409314   0.625000000000000   1.0000000
B2   B   0.722219633830072   0.777769232586620   0.625000000000000   1.0000000
B2   B   0.555556196165978   0.277789318287008   0.625000000000000   1.0000000
B2   B   0.888892892155259   0.277782097757089   0.625000000000000   1.0000000
B2   B   0.222804731279399   0.778208008030207   0.125000000000000   1.0000000
B2   B   0.056230002869328   0.277719000378374   0.125000000000000   1.0000000
B2   B   0.555317434736388   0.777426674422344   0.125000000000000   1.0000000
B2   B   0.888671581218419   0.777586324072563   0.125000000000000   1.0000000
B2   B   0.721209037372766   0.276195577928032   0.125000000000000   1.0000000
B2   B   0.055555098335707   0.944443836107057   0.625000000000000   1.0000000
B2   B   0.388891687476243   0.944444911154333   0.625000000000000   1.0000000
B2   B   0.222231941575382   0.444442997370073   0.625000000000000   1.0000000
B2   B   0.555547883108422   0.444444167548807   0.625000000000000   1.0000000
B2   B   0.722223358115615   0.944439703675261   0.625000000000000   1.0000000
B2   B   0.888888956457228   0.444450012762811   0.625000000000000   1.0000000
B2   B   0.055481282525976   0.444417821340585   0.125000000000000   1.0000000
B2   B   0.222635484512170   0.944713963893636   0.125000000000000   1.0000000
B2   B   0.555503411624443   0.944471644949850   0.125000000000000   1.0000000
B2   B   0.387986346778703   0.445317876377716   0.125000000000000   1.0000000
B2   B   0.888960562957950   0.944627154703797   0.125000000000000   1.0000000
B2   B   0.719742061671192   0.440112065677152   0.125000000000000   1.0000000
B2   B   0.222224543905953   0.611106722602666   0.625000000000000   1.0000000
B2   B   0.055559463083601   0.111113277430434   0.625000000000000   1.0000000
B2   B   0.555554805233290   0.611100913247944   0.625000000000000   1.0000000
B2   B   0.388895370016695   0.111121987226243   0.625000000000000   1.0000000
B2   B   0.888883568975872   0.611108283508998   0.625000000000000   1.0000000
B2   B   0.057126427998065   0.611509311434145   0.125000000000000   1.0000000
B2   B   0.722224137055490   0.111111259553022   0.625000000000000   1.0000000
B2   B   0.223697874999176   0.112011878361009   0.125000000000000   1.0000000
B2   B   0.388335223571421   0.611679801349316   0.125000000000000   1.0000000
B2   B   0.718859694935665   0.612021418880446   0.125000000000000   1.0000000
B2   B   0.555076745189924   0.111080809616937   0.125000000000000   1.0000000
B2   B   0.388895840459505   0.611104218756568   0.625000000000000   1.0000000
B2   B   0.889074464026965   0.111123092752425   0.125000000000000   1.0000000
B2   B   0.222220422852055   0.777773731851332   0.625000000000000   1.0000000
B2   B   0.055562133069027   0.277780698919354   0.625000000000000   1.0000000
B2   B   0.388898913537559   0.277793775415209   0.625000000000000   1.0000000
B2   B   0.555558406531374   0.777770160486608   0.625000000000000   1.0000000
B2   B   0.888884225502860   0.777770440066910   0.625000000000000   1.0000000
B2   B   0.722224000635843   0.277784226096557   0.625000000000000   1.0000000
B2   B   0.057155357573079   0.779198340362206   0.125000000000000   1.0000000
B2   B   0.389008304345994   0.778213429845252   0.125000000000000   1.0000000
B2   B   0.224142671157025   0.278652746812138   0.125000000000000   1.0000000
B2   B   0.721460205372271   0.778515629762871   0.125000000000000   1.0000000
B2   B   0.553175786030402   0.277322298326209   0.125000000000000   1.0000000
B2   B   0.888817680183348   0.277508584646217   0.125000000000000   1.0000000
B2   B   0.055559472309677   0.444446430652963   0.625000000000000   1.0000000
B2   B   0.222222907150136   0.944446326637812   0.625000000000000   1.0000000
B2   B   0.555557412494607   0.944441580839113   0.625000000000000   1.0000000
B2   B   0.388900346250036   0.444442609161960   0.625000000000000   1.0000000
B2   B   0.888889423545459   0.944441083962142   0.625000000000000   1.0000000
B2   B   0.056215592885607   0.945162950233064   0.125000000000000   1.0000000
B2   B   0.722213210753528   0.444445901656444   0.625000000000000   1.0000000
B2   B   0.389020412554283   0.944811292821526   0.125000000000000   1.0000000
B2   B   0.221770646044012   0.444585413013193   0.125000000000000   1.0000000
B2   B   0.222566381722337   0.611384673350902   0.125000000000000   1.0000000
B2   B   0.722101179804772   0.944654467974523   0.125000000000000   1.0000000
B2   B   0.888724992415849   0.444456759283724   0.125000000000000   1.0000000
B2   B   0.055551681224738   0.611107365078079   0.625000000000000   1.0000000
B2   B   0.222228706490150   0.111120795840141   0.625000000000000   1.0000000
B2   B   0.722210396968142   0.611102705296124   0.625000000000000   1.0000000
B2   B   0.555558216886240   0.111114607028392   0.625000000000000   1.0000000
B2   B   0.888892189967078   0.111110509928757   0.625000000000000   1.0000000
C2   C   0.446947297387902   0.386636997154522   0.125000000000000   1.0000000
C2   C   0.777972981067400   0.555573125527315   0.125000000000000   1.0000000
C2   C   0.390276488744371   0.278092801012445   0.125000000000000   1.0000000
C2   C   0.554109142027211   0.442602103795658   0.125000000000000   1.0000000


