data_1
_audit_creation_method   'vasp2cif'
_cell_length_a    14.93631414619966
_cell_length_b    14.936314146199727
_cell_length_c    13.341276283792837
_cell_angle_alpha    90.0
_cell_angle_beta    90.0
_cell_angle_gamma    119.99999999999984

_symmetry_space_group_name_H-M    'P 1'
loop_
_atom_site_label
_atom_site_type_symbol
_atom_site_fract_x
_atom_site_fract_y
_atom_site_fract_z
_atom_site_occupancy
Ga2   Ga   0.477418559628579   0.405375946480955   0.375000000000000   1.0000000
N2   N   0.111177680914506   0.055576527668051   0.124562579691162   1.0000000
N2   N   0.611178545640745   0.555606876120420   0.126068777172843   1.0000000
N2   N   0.444492073453009   0.055548499615524   0.124584297522733   1.0000000
N2   N   0.944507226843971   0.555589290546076   0.124858064590201   1.0000000
N2   N   0.777826487587946   0.055579910460640   0.124739774797946   1.0000000
N2   N   0.111164572537869   0.722248952935599   0.625182111821250   1.0000000
N2   N   0.444492073453009   0.722276907170825   0.625415702477266   1.0000000
N2   N   0.277860763298911   0.222244872166525   0.624989983968768   1.0000000
N2   N   0.777839839601264   0.722250485954144   0.625018737764811   1.0000000
N2   N   0.611151461066503   0.222222893593080   0.625163563432107   1.0000000
N2   N   0.944511999930114   0.222261107321875   0.625279354545551   1.0000000
N2   N   0.277826960065476   0.722257114348516   0.124733711550655   1.0000000
N2   N   0.111198491143297   0.222265912238313   0.124640943376332   1.0000000
N2   N   0.444518581344808   0.222221569934433   0.125222196047839   1.0000000
N2   N   0.611151461066503   0.722261900806748   0.124836436567894   1.0000000
N2   N   0.944507226843971   0.722251269631228   0.124858064590201   1.0000000
N2   N   0.777827628600461   0.222250226372210   0.124750799838816   1.0000000
N2   N   0.111168087573787   0.888906653771423   0.625282114041682   1.0000000
N2   N   0.444486352171173   0.888909842752251   0.625310244800066   1.0000000
N2   N   0.277860763298911   0.388949224465716   0.624989983968768   1.0000000
N2   N   0.611178545640745   0.388905002853654   0.623931222827159   1.0000000
N2   N   0.777827628600461   0.888910735561582   0.625249200161184   1.0000000
N2   N   0.944506613467069   0.388925472051680   0.625273000942495   1.0000000
N2   N   0.111177680914506   0.388934486579784   0.124562579691162   1.0000000
N2   N   0.277826960065476   0.888903179050290   0.124733711550655   1.0000000
N2   N   0.611153694399008   0.888920766522021   0.124654011456743   1.0000000
N2   N   0.444602739695318   0.388968036514322   0.128688304399282   1.0000000
N2   N   0.944506613467069   0.888914474748721   0.124726999057503   1.0000000
N2   N   0.777839839601264   0.388922686980444   0.124981262235188   1.0000000
N2   N   0.277833078227020   0.555609769614401   0.625390573764208   1.0000000
N2   N   0.111177680914506   0.055576527668051   0.625437420308839   1.0000000
N2   N   0.611178545640745   0.555606876120420   0.623931222827159   1.0000000
N2   N   0.444492073453009   0.055548499615524   0.625415702477266   1.0000000
N2   N   0.944507226843971   0.555589290546076   0.625141935409803   1.0000000
N2   N   0.111168087573787   0.555594767135692   0.124717885958322   1.0000000
N2   N   0.777826487587946   0.055579910460640   0.625260225202055   1.0000000
N2   N   0.277833078227020   0.055556641945955   0.124609426235790   1.0000000
N2   N   0.444518581344808   0.555630344743711   0.125222196047839   1.0000000
N2   N   0.777831664747412   0.555582499040374   0.125336225343835   1.0000000
N2   N   0.611153694399008   0.055566261210310   0.124654011456743   1.0000000
N2   N   0.444518581344808   0.555630344743711   0.624777803952159   1.0000000
N2   N   0.944511999930114   0.055584225941574   0.124720645454451   1.0000000
N2   N   0.277826960065476   0.722257114348516   0.625266288449342   1.0000000
N2   N   0.111198491143297   0.222265912238313   0.625359056623667   1.0000000
N2   N   0.444518581344808   0.222221569934433   0.624777803952159   1.0000000
N2   N   0.611151461066503   0.722261900806748   0.625163563432107   1.0000000
N2   N   0.944507226843971   0.722251269631228   0.625141935409803   1.0000000
N2   N   0.777827628600461   0.222250226372210   0.625249200161184   1.0000000
N2   N   0.111164572537869   0.722248952935599   0.124817888178750   1.0000000
N2   N   0.444492073453009   0.722276907170825   0.124584297522733   1.0000000
N2   N   0.277860763298911   0.222244872166525   0.125010016031235   1.0000000
N2   N   0.777839839601264   0.722250485954144   0.124981262235188   1.0000000
N2   N   0.611151461066503   0.222222893593080   0.124836436567894   1.0000000
N2   N   0.944511999930114   0.222261107321875   0.124720645454451   1.0000000
N2   N   0.111177680914506   0.388934486579784   0.625437420308839   1.0000000
N2   N   0.277826960065476   0.888903179050290   0.625266288449342   1.0000000
N2   N   0.611153694399008   0.888920766522021   0.625345988543256   1.0000000
N2   N   0.444602739695318   0.388968036514322   0.621311695600717   1.0000000
N2   N   0.944506613467069   0.888914474748721   0.625273000942495   1.0000000
N2   N   0.111168087573787   0.888906653771423   0.124717885958322   1.0000000
N2   N   0.777839839601264   0.388922686980444   0.625018737764811   1.0000000
N2   N   0.444486352171173   0.888909842752251   0.124689755199933   1.0000000
N2   N   0.277860763298911   0.388949224465716   0.125010016031235   1.0000000
N2   N   0.277833078227020   0.555609769614401   0.124609426235790   1.0000000
N2   N   0.611178545640745   0.388905002853654   0.126068777172843   1.0000000
N2   N   0.777827628600461   0.888910735561582   0.124750799838816   1.0000000
N2   N   0.944506613467069   0.388925472051680   0.124726999057503   1.0000000
N2   N   0.111168087573787   0.555594767135692   0.625282114041682   1.0000000
N2   N   0.277833078227020   0.055556641945955   0.625390573764208   1.0000000
N2   N   0.777831664747412   0.555582499040374   0.624663774656165   1.0000000
N2   N   0.611153694399008   0.055566261210310   0.625345988543256   1.0000000
N2   N   0.944511999930114   0.055584225941574   0.625279354545551   1.0000000
N2   N   0.057588323333372   0.112181498511513   0.375000000000000   1.0000000
N2   N   0.556215681440994   0.613282763483618   0.375000000000000   1.0000000
N2   N   0.389007649023912   0.106624669240111   0.375000000000000   1.0000000
N2   N   0.888925343095173   0.611129338214260   0.375000000000000   1.0000000
N2   N   0.724087932949496   0.111753422088547   0.375000000000000   1.0000000
N2   N   0.055457925098920   0.777730355261971   0.875000000000000   1.0000000
N2   N   0.388791111393121   0.777729428836162   0.875000000000000   1.0000000
N2   N   0.222131389891212   0.277732361612275   0.875000000000000   1.0000000
N2   N   0.722128680733197   0.777731763161082   0.875000000000000   1.0000000
N2   N   0.555463316766873   0.277728894722199   0.875000000000000   1.0000000
N2   N   0.888795933251001   0.277726225938709   0.875000000000000   1.0000000
N2   N   0.222191844902747   0.777762589118039   0.375000000000000   1.0000000
N2   N   0.057588323333372   0.278740158155195   0.375000000000000   1.0000000
N2   N   0.388493922661987   0.268411112805829   0.375000000000000   1.0000000
N2   N   0.556951155918705   0.779681800957478   0.375000000000000   1.0000000
N2   N   0.889546678940470   0.778194117042525   0.375000000000000   1.0000000
N2   N   0.723738272086932   0.277916578054942   0.375000000000000   1.0000000
N2   N   0.055458110546677   0.944398720805424   0.875000000000000   1.0000000
N2   N   0.388791111393121   0.944395015890294   0.875000000000000   1.0000000
N2   N   0.222117106528076   0.444390312962389   0.875000000000000   1.0000000
N2   N   0.555453326616195   0.444393329974762   0.875000000000000   1.0000000
N2   N   0.722130103887402   0.944400236893395   0.875000000000000   1.0000000
N2   N   0.888801938863837   0.444394724827570   0.875000000000000   1.0000000
N2   N   0.056144037947594   0.445097083538529   0.375000000000000   1.0000000
N2   N   0.222117354963992   0.943313290965537   0.375000000000000   1.0000000
N2   N   0.557018696996027   0.945176015164679   0.375000000000000   1.0000000
N2   N   0.388493922661987   0.453416143189495   0.375000000000000   1.0000000
N2   N   0.890565207240220   0.945549736299872   0.375000000000000   1.0000000
N2   N   0.722778294009512   0.444892391685662   0.375000000000000   1.0000000
N2   N   0.222126236138598   0.611057935762129   0.875000000000000   1.0000000
N2   N   0.055456708715577   0.111066159250960   0.875000000000000   1.0000000
N2   N   0.555463316766873   0.611067755378009   0.875000000000000   1.0000000
N2   N   0.388796863895463   0.111078011925007   0.875000000000000   1.0000000
N2   N   0.888786258635835   0.611059795984589   0.875000000000000   1.0000000
N2   N   0.055483092601218   0.611288554638780   0.375000000000000   1.0000000
N2   N   0.722130103887402   0.111063200327340   0.875000000000000   1.0000000
N2   N   0.222604490430953   0.109911499335977   0.375000000000000   1.0000000
N2   N   0.389007649023912   0.615716313117142   0.375000000000000   1.0000000
N2   N   0.722778294009512   0.611219235657182   0.375000000000000   1.0000000
N2   N   0.556951155918705   0.110602688294565   0.375000000000000   1.0000000
N2   N   0.388796863895463   0.611052185303802   0.875000000000000   1.0000000
N2   N   0.890903535825176   0.112118434579260   0.375000000000000   1.0000000
N2   N   0.222126386992876   0.777729860163107   0.875000000000000   1.0000000
N2   N   0.055456708715577   0.277723882797953   0.875000000000000   1.0000000
N2   N   0.388796280475759   0.277742494646277   0.875000000000000   1.0000000
N2   N   0.555452969439852   0.777734358610609   0.875000000000000   1.0000000
N2   N   0.888801938863837   0.777740547369598   0.875000000000000   1.0000000
N2   N   0.722128680733197   0.277730250905454   0.875000000000000   1.0000000
N2   N   0.055483092601218   0.777527871295773   0.375000000000000   1.0000000
N2   N   0.389441259068414   0.779330665360564   0.375000000000000   1.0000000
N2   N   0.225321142136941   0.279327237735139   0.375000000000000   1.0000000
N2   N   0.723738272086932   0.779155027365330   0.375000000000000   1.0000000
N2   N   0.556215681440995   0.276266251290710   0.375000000000000   1.0000000
N2   N   0.890565207240220   0.278348804273686   0.375000000000000   1.0000000
N2   N   0.055458110546677   0.444392723074579   0.875000000000000   1.0000000
N2   N   0.222126236138598   0.944401633709800   0.875000000000000   1.0000000
N2   N   0.555459932200429   0.944396632766880   0.875000000000000   1.0000000
N2   N   0.388796280475759   0.444387119162819   0.875000000000000   1.0000000
N2   N   0.888795933251001   0.944403040645627   0.875000000000000   1.0000000
N2   N   0.056144037947594   0.944380287742395   0.375000000000000   1.0000000
N2   N   0.722124756033662   0.444391932545883   0.875000000000000   1.0000000
N2   N   0.389441259068414   0.943443927041184   0.375000000000000   1.0000000
N2   N   0.222604490430953   0.446026324428314   0.375000000000000   1.0000000
N2   N   0.222117354963992   0.612137397331794   0.375000000000000   1.0000000
N2   N   0.724087932949496   0.945667844194287   0.375000000000000   1.0000000
N2   N   0.889546678940470   0.444685895231281   0.375000000000000   1.0000000
N2   N   0.055457925098920   0.611060903170284   0.875000000000000   1.0000000
N2   N   0.222117106528076   0.111060126899024   0.875000000000000   1.0000000
N2   N   0.722124756033662   0.611066156821114   0.875000000000000   1.0000000
N2   N   0.555452969439852   0.111051944162582   0.875000000000000   1.0000000
N2   N   0.888796361378258   0.111064847355801   0.875000000000000   1.0000000
B2   B   0.111938891127836   0.055491113479133   0.375000000000000   1.0000000
B2   B   0.616241880568127   0.565613898597850   0.375000000000000   1.0000000
B2   B   0.445477157224896   0.053214785179424   0.375000000000000   1.0000000
B2   B   0.945113926645107   0.555715621125144   0.375000000000000   1.0000000
B2   B   0.780060593195172   0.056696963264252   0.375000000000000   1.0000000
B2   B   0.111211216103208   0.722272274718269   0.875000000000000   1.0000000
B2   B   0.444239318844501   0.721992743256616   0.875000000000000   1.0000000
B2   B   0.277550233703707   0.222245115648973   0.875000000000000   1.0000000
B2   B   0.777622058358218   0.722311293974062   0.875000000000000   1.0000000
B2   B   0.611200709976127   0.222229842567158   0.875000000000000   1.0000000
B2   B   0.944264338228234   0.221980344952264   0.875000000000000   1.0000000
B2   B   0.278098185819521   0.722995166109058   0.375000000000000   1.0000000
B2   B   0.113811866457119   0.223572599895223   0.375000000000000   1.0000000
B2   B   0.442950477374448   0.215258245342826   0.375000000000000   1.0000000
B2   B   0.613354397210719   0.726029703770067   0.375000000000000   1.0000000
B2   B   0.945113926645107   0.722731638853300   0.375000000000000   1.0000000
B2   B   0.779953430249349   0.222401578205688   0.375000000000000   1.0000000
B2   B   0.110925988985411   0.888945669292307   0.875000000000000   1.0000000
B2   B   0.444530627267241   0.888931980300283   0.875000000000000   1.0000000
B2   B   0.277550233703707   0.388638451388063   0.875000000000000   1.0000000
B2   B   0.610943329706411   0.388897636652115   0.875000000000000   1.0000000
B2   B   0.777615525453070   0.888699866522962   0.875000000000000   1.0000000
B2   B   0.944555806331210   0.388924079259140   0.875000000000000   1.0000000
B2   B   0.111938891127836   0.389781110982030   0.375000000000000   1.0000000
B2   B   0.278098185819521   0.888436353043796   0.375000000000000   1.0000000
B2   B   0.613140507600088   0.890686663885681   0.375000000000000   1.0000000
B2   B   0.945627717077369   0.889789652090085   0.375000000000000   1.0000000
B2   B   0.779651210843350   0.388352601638281   0.375000000000000   1.0000000
B2   B   0.277835817642685   0.555579395718841   0.875000000000000   1.0000000
B2   B   0.110912102699066   0.055324463981012   0.875000000000000   1.0000000
B2   B   0.610943329706411   0.555379026387624   0.875000000000000   1.0000000
B2   B   0.444239318844501   0.055579908921218   0.875000000000000   1.0000000
B2   B   0.944286638497054   0.555597232010376   0.875000000000000   1.0000000
B2   B   0.111296814496691   0.556040087746379   0.375000000000000   1.0000000
B2   B   0.777887681775217   0.055610507554278   0.875000000000000   1.0000000
B2   B   0.277581923287066   0.053776640491246   0.375000000000000   1.0000000
B2   B   0.442950477374448   0.561025565364959   0.375000000000000   1.0000000
B2   B   0.779585463861832   0.556459398597585   0.375000000000000   1.0000000
B2   B   0.613140507600088   0.055787177047734   0.375000000000000   1.0000000
B2   B   0.444232163053106   0.555601609428134   0.875000000000000   1.0000000
B2   B   0.946664905897376   0.056919257475601   0.375000000000000   1.0000000
B2   B   0.277578520463335   0.722263210829620   0.875000000000000   1.0000000
B2   B   0.111178723958572   0.222256028645950   0.875000000000000   1.0000000
B2   B   0.444232163053106   0.221963886958314   0.875000000000000   1.0000000
B2   B   0.611200709976127   0.722304200742296   0.875000000000000   1.0000000
B2   B   0.944286638497054   0.722022739820013   0.875000000000000   1.0000000
B2   B   0.777615525453070   0.222248992263440   0.875000000000000   1.0000000
B2   B   0.111298713686233   0.722316023509783   0.375000000000000   1.0000000
B2   B   0.445477157224896   0.725595705378811   0.375000000000000   1.0000000
B2   B   0.278864686443673   0.221139928503022   0.375000000000000   1.0000000
B2   B   0.779651210843350   0.724631942538402   0.375000000000000   1.0000000
B2   B   0.613354397210718   0.220658026773978   0.375000000000000   1.0000000
B2   B   0.946664905897376   0.223078981755109   0.375000000000000   1.0000000
B2   B   0.110912102699066   0.388920972051382   0.875000000000000   1.0000000
B2   B   0.277578520463335   0.888648642967047   0.875000000000000   1.0000000
B2   B   0.610926215862902   0.888950020233517   0.875000000000000   1.0000000
B2   B   0.444455046433966   0.388894189883646   0.875000000000000   1.0000000
B2   B   0.944555806331210   0.888965060405400   0.875000000000000   1.0000000
B2   B   0.111296814496691   0.888590060083641   0.375000000000000   1.0000000
B2   B   0.777622058358218   0.388644097717482   0.875000000000000   1.0000000
B2   B   0.445725802252740   0.889529567793032   0.375000000000000   1.0000000
B2   B   0.278864686443673   0.391058091273979   0.375000000000000   1.0000000
B2   B   0.277581923287067   0.557138616129151   0.375000000000000   1.0000000
B2   B   0.616241880568127   0.383961315303605   0.375000000000000   1.0000000
B2   B   0.779953430249349   0.890885185376989   0.375000000000000   1.0000000
B2   B   0.945627717077369   0.389171398320616   0.375000000000000   1.0000000
B2   B   0.110925988985411   0.555313653026430   0.875000000000000   1.0000000
B2   B   0.277835817642685   0.055589755257179   0.875000000000000   1.0000000
B2   B   0.777893209988375   0.555613271660852   0.875000000000000   1.0000000
B2   B   0.610926215862902   0.055309528962711   0.875000000000000   1.0000000
B2   B   0.944264338228234   0.055617326609306   0.875000000000000   1.0000000
B2   B   0.055633646007360   0.111153735745613   0.124851625445106   1.0000000
B2   B   0.555510038253653   0.611317727955135   0.125067740804670   1.0000000
B2   B   0.388815827510563   0.110914078268512   0.124759996177985   1.0000000
B2   B   0.889153711110311   0.611243522221827   0.124875232876505   1.0000000
B2   B   0.722274144741669   0.111084893945221   0.124842688060256   1.0000000
B2   B   0.055723066793906   0.777860511562627   0.625076665674849   1.0000000
B2   B   0.388884857207087   0.777838798009668   0.625186887698308   1.0000000
B2   B   0.222209613791718   0.277771473562527   0.624918712428011   1.0000000
B2   B   0.722316897594267   0.777941066124808   0.625250483601208   1.0000000
B2   B   0.555510038253653   0.277525643631855   0.624932259195331   1.0000000
B2   B   0.889006468646908   0.277799598457067   0.625127173620684   1.0000000
B2   B   0.222286178563567   0.777809755948457   0.124894967429385   1.0000000
B2   B   0.055633646007360   0.277813243595084   0.124851625445106   1.0000000
B2   B   0.388691682998629   0.277447168441966   0.126373857350224   1.0000000
B2   B   0.555542599417663   0.777902011791372   0.124720917958920   1.0000000
B2   B   0.889099023294002   0.777938714047058   0.124863750859811   1.0000000
B2   B   0.722316897594267   0.277709164802803   0.124749516398790   1.0000000
B2   B   0.055662305229548   0.944501759962339   0.625228547438528   1.0000000
B2   B   0.388884857207087   0.944379392530759   0.625186887698308   1.0000000
B2   B   0.222221597858440   0.444513210357694   0.625122207175822   1.0000000
B2   B   0.555718764567809   0.444526048950569   0.624156635922901   1.0000000
B2   B   0.722274144741669   0.944522584129783   0.625157311939741   1.0000000
B2   B   0.889099023294002   0.444493642580282   0.625136249140190   1.0000000
B2   B   0.055662305229548   0.444493878600536   0.124771452561472   1.0000000
B2   B   0.222266999634573   0.944424482707711   0.124848500396702   1.0000000
B2   B   0.555553312880419   0.944443323106873   0.124746844501083   1.0000000
B2   B   0.388691682998629   0.444577847890000   0.126373857350224   1.0000000
B2   B   0.889006468646908   0.944540203523174   0.124872826379316   1.0000000
B2   B   0.722489218579309   0.444506286717899   0.125070709430618   1.0000000
B2   B   0.222266999634573   0.611175850260195   0.625151499603298   1.0000000
B2   B   0.055633646007360   0.111153735745613   0.625148374554894   1.0000000
B2   B   0.555510038253653   0.611317727955135   0.624932259195331   1.0000000
B2   B   0.388815827510563   0.110914078268512   0.625240003822016   1.0000000
B2   B   0.889153711110311   0.611243522221827   0.625124767123494   1.0000000
B2   B   0.055723066793906   0.611195888564614   0.124923334325153   1.0000000
B2   B   0.722274144741669   0.111084893945221   0.625157311939741   1.0000000
B2   B   0.222221597858440   0.111041720834080   0.124877792824178   1.0000000
B2   B   0.388815827510563   0.611235082575393   0.124759996177985   1.0000000
B2   B   0.722489218579309   0.611316265194748   0.125070709430618   1.0000000
B2   B   0.555542599417663   0.110973920959626   0.124720917958920   1.0000000
B2   B   0.388815827510563   0.611235082575393   0.625240003822016   1.0000000
B2   B   0.888968536896479   0.111150935114910   0.124865649337730   1.0000000
B2   B   0.222286178563567   0.777809755948457   0.625105032570616   1.0000000
B2   B   0.055633646007360   0.277813243595084   0.625148374554894   1.0000000
B2   B   0.388691682998629   0.277447168441966   0.623626142649776   1.0000000
B2   B   0.555542599417663   0.777902011791372   0.625279082041081   1.0000000
B2   B   0.889099023294002   0.777938714047058   0.625136249140190   1.0000000
B2   B   0.722316897594267   0.277709164802803   0.625250483601208   1.0000000
B2   B   0.055723066793906   0.777860511562627   0.124923334325153   1.0000000
B2   B   0.388884857207087   0.777838798009668   0.124813112301692   1.0000000
B2   B   0.222209613791718   0.277771473562527   0.125081287571987   1.0000000
B2   B   0.722316897594267   0.777941066124808   0.124749516398790   1.0000000
B2   B   0.555510038253653   0.277525643631855   0.125067740804671   1.0000000
B2   B   0.889006468646908   0.277799598457067   0.124872826379316   1.0000000
B2   B   0.055662305229548   0.444493878600536   0.625228547438528   1.0000000
B2   B   0.222266999634573   0.944424482707711   0.625151499603298   1.0000000
B2   B   0.555553312880419   0.944443323106873   0.625253155498916   1.0000000
B2   B   0.388691682998629   0.444577847890000   0.623626142649776   1.0000000
B2   B   0.889006468646908   0.944540203523174   0.625127173620684   1.0000000
B2   B   0.055662305229548   0.944501759962339   0.124771452561472   1.0000000
B2   B   0.722489218579309   0.444506286717899   0.624929290569383   1.0000000
B2   B   0.388884857207087   0.944379392530759   0.124813112301692   1.0000000
B2   B   0.222221597858440   0.444513210357694   0.124877792824178   1.0000000
B2   B   0.222266999634573   0.611175850260195   0.124848500396702   1.0000000
B2   B   0.555718764567809   0.444526048950569   0.125843364077099   1.0000000
B2   B   0.722274144741669   0.944522584129783   0.124842688060256   1.0000000
B2   B   0.889099023294002   0.444493642580282   0.124863750859811   1.0000000
B2   B   0.055723066793906   0.611195888564614   0.625076665674849   1.0000000
B2   B   0.222221597858440   0.111041720834080   0.625122207175822   1.0000000
B2   B   0.722489218579309   0.611316265194748   0.624929290569383   1.0000000
B2   B   0.555542599417663   0.110973920959626   0.625279082041081   1.0000000
B2   B   0.888968536896479   0.111150935114910   0.625134350662268   1.0000000


