data_1
_audit_creation_method   'vasp2cif'
_cell_length_a    17.52789999999977
_cell_length_b    17.52789999999977
_cell_length_c    15.0
_cell_angle_alpha    90.0
_cell_angle_beta    90.0
_cell_angle_gamma    119.99999999999916

_symmetry_space_group_name_H-M    'P 1'
loop_
_atom_site_label
_atom_site_type_symbol
_atom_site_fract_x
_atom_site_fract_y
_atom_site_fract_z
_atom_site_occupancy
B2   B   0.904518602264897   0.952048023891091   0.110519552436848   1.0000000
B2   B   0.904423596713684   0.094856513098056   0.110526929732410   1.0000000
B2   B   0.904584260339753   0.237818918406164   0.110149908677117   1.0000000
B2   B   0.904932206076994   0.380872621261968   0.110098003496516   1.0000000
B2   B   0.905982523117020   0.524201217151171   0.110535401156849   1.0000000
B2   B   0.906676702544086   0.667562207432591   0.109468353932537   1.0000000
B2   B   0.905750319086449   0.810081587810997   0.109854097727975   1.0000000
B2   B   0.047904161635018   0.952573342994991   0.110445519597939   1.0000000
B2   B   0.047345940101353   0.095082874991482   0.110715214106542   1.0000000
B2   B   0.047243109501634   0.237859177171533   0.110309678276517   1.0000000
B2   B   0.047495585700740   0.380817329496206   0.109799165897557   1.0000000
B2   B   0.048208625124322   0.523955916842653   0.109664941678605   1.0000000
B2   B   0.048674827331501   0.667139895173950   0.109616157739850   1.0000000
B2   B   0.048608257371016   0.810088430810126   0.109742309920858   1.0000000
B2   B   0.190936616360539   0.952763800597917   0.110560901054507   1.0000000
B2   B   0.190203736493111   0.095144514705688   0.110841182489281   1.0000000
B2   B   0.190081743507525   0.238080386086294   0.110732348727198   1.0000000
B2   B   0.189958919197280   0.380825870893932   0.110297794262561   1.0000000
B2   B   0.190585198763142   0.523887714692559   0.110203184261700   1.0000000
B2   B   0.190948567455522   0.667005618834882   0.110499096199515   1.0000000
B2   B   0.191175578020145   0.809994256819456   0.110411664069176   1.0000000
B2   B   0.333779204176830   0.952826691196317   0.110779427338545   1.0000000
B2   B   0.333422663713741   0.095482910179596   0.110114298158768   1.0000000
B2   B   0.332348658453159   0.237474929565131   0.110435099097358   1.0000000
B2   B   0.332792522251639   0.381027949080359   0.111536292818732   1.0000000
B2   B   0.333098990288592   0.524105317288438   0.112103338650495   1.0000000
B2   B   0.333233416192399   0.666825175632395   0.112584486031591   1.0000000
B2   B   0.333712252535027   0.809847899827942   0.111544875164046   1.0000000
B2   B   0.476399647682909   0.952471037805340   0.111283679757350   1.0000000
B2   B   0.476378131009920   0.095687196835644   0.110421313416211   1.0000000
B2   B   0.475909784466459   0.238759855261530   0.109297364979040   1.0000000
B2   B   0.474091836362533   0.380679506827262   0.105880737506690   1.0000000
B2   B   0.475278470491075   0.665220864845668   0.114762036057031   1.0000000
B2   B   0.476152276067588   0.808976391820424   0.112535275603211   1.0000000
B2   B   0.618908590992270   0.951990885837546   0.111379954617288   1.0000000
B2   B   0.619091495230739   0.095286917355577   0.110666268545934   1.0000000
B2   B   0.619016816949737   0.238319119070666   0.110784199702690   1.0000000
B2   B   0.617670105826959   0.380731814234567   0.113051466376571   1.0000000
B2   B   0.616148689884307   0.663915485514361   0.114436814712297   1.0000000
B2   B   0.618628939807549   0.808672887547771   0.112630364024857   1.0000000
B2   B   0.761562417827068   0.951844081245264   0.111008735834592   1.0000000
B2   B   0.761735057657676   0.094949043164073   0.110576319205889   1.0000000
B2   B   0.761947903984235   0.238034631018763   0.110471913665201   1.0000000
B2   B   0.762225357918998   0.381122323179482   0.111800267937755   1.0000000
B2   B   0.764686604957699   0.525885759637065   0.114179624101264   1.0000000
B2   B   0.764669701441009   0.667339949133684   0.111722630006731   1.0000000
B2   B   0.761407589989341   0.808812796522758   0.111239008476616   1.0000000
C2   C   0.473983398401566   0.522470675219981   0.126783425134507   1.0000000
N2   N   0.952790268232440   0.905080821278561   0.110205387559134   1.0000000
N2   N   0.952106355478394   0.047350592446903   0.110607421977527   1.0000000
N2   N   0.952078075059695   0.190143728140107   0.110281913449807   1.0000000
N2   N   0.952323561145514   0.333076313477902   0.109859281513027   1.0000000
N2   N   0.953029013691061   0.476170009545753   0.109836774347138   1.0000000
N2   N   0.953651459294642   0.619463855366618   0.109591917310183   1.0000000
N2   N   0.953590460621297   0.762622300879644   0.109242122119846   1.0000000
N2   N   0.095831783681041   0.905227736184138   0.110314246221118   1.0000000
N2   N   0.095151048442936   0.047648920026912   0.110803674206732   1.0000000
N2   N   0.094935467590550   0.190395921813380   0.110616860412147   1.0000000
N2   N   0.094899338983982   0.333096745273090   0.110049996530852   1.0000000
N2   N   0.095481248409183   0.476105064576494   0.109671130709158   1.0000000
N2   N   0.095891634180522   0.619239789824940   0.109745180016548   1.0000000
N2   N   0.096108680450253   0.762380932088274   0.109774208216274   1.0000000
N2   N   0.238629864024804   0.905226079445401   0.110598287566185   1.0000000
N2   N   0.238247212785489   0.047919308796674   0.110626098105172   1.0000000
N2   N   0.237385910510620   0.190222723237822   0.110967495975336   1.0000000
N2   N   0.237808590565625   0.333609703793487   0.110672652799757   1.0000000
N2   N   0.238015383548641   0.475984422616112   0.110143029428901   1.0000000
N2   N   0.238198065937913   0.619114977722661   0.110970942494444   1.0000000
N2   N   0.238618439346726   0.762260669332289   0.110858248870161   1.0000000
N2   N   0.381280658492800   0.905066122938004   0.111250075646579   1.0000000
N2   N   0.381210741586206   0.048053375804069   0.110354789410144   1.0000000
N2   N   0.380721812483594   0.190658172420238   0.109382791944064   1.0000000
N2   N   0.379059954482704   0.332279895319192   0.110648596392949   1.0000000
N2   N   0.381293439032753   0.476998818826564   0.113925822782005   1.0000000
N2   N   0.380358841687108   0.618905815697540   0.114144883764782   1.0000000
N2   N   0.381033609322760   0.761958867426453   0.112426962873962   1.0000000
N2   N   0.523734430653877   0.904390074489054   0.111727487933663   1.0000000
N2   N   0.523910494819761   0.047832575020477   0.110780286258300   1.0000000
N2   N   0.523758036213005   0.191121610014649   0.110192479675293   1.0000000
N2   N   0.522963334013259   0.334455474367294   0.108498556440867   1.0000000
N2   N   0.510211686387949   0.473144837721714   0.090939018975729   1.0000000
N2   N   0.520858818649701   0.615294100328501   0.116457778549805   1.0000000
N2   N   0.523446539871064   0.760705539666289   0.113354726640902   1.0000000
N2   N   0.666320516539483   0.904105693345849   0.111581786144087   1.0000000
N2   N   0.666498359417383   0.047359305536229   0.110769426662726   1.0000000
N2   N   0.666681088675329   0.190621373162828   0.110533335558332   1.0000000
N2   N   0.666754129850773   0.333562299902481   0.111866618330575   1.0000000
N2   N   0.672449161258057   0.472780451569978   0.122801979284748   1.0000000
N2   N   0.672601712531886   0.628244679012840   0.114677549663142   1.0000000
N2   N   0.665675361477597   0.760619982131834   0.112618484403135   1.0000000
N2   N   0.809137660516906   0.904251654887948   0.110780003103271   1.0000000
N2   N   0.809197873244736   0.047191485180815   0.110632674968989   1.0000000
N2   N   0.809399386410867   0.190224124741875   0.110278614686718   1.0000000
N2   N   0.809656195239688   0.333282807699167   0.110602921246550   1.0000000
N2   N   0.810858242686205   0.476364427596527   0.112290868341319   1.0000000
N2   N   0.811941169682357   0.620138418173408   0.110540374524899   1.0000000
N2   N   0.810730548070129   0.762898144617712   0.110439459921674   1.0000000


