data_1
_audit_creation_method   'vasp2cif'
_cell_length_a    14.93631414619966
_cell_length_b    14.936314146199727
_cell_length_c    13.341276283792837
_cell_angle_alpha    90.0
_cell_angle_beta    90.0
_cell_angle_gamma    119.99999999999984

_symmetry_space_group_name_H-M    'P 1'
loop_
_atom_site_label
_atom_site_type_symbol
_atom_site_fract_x
_atom_site_fract_y
_atom_site_fract_z
_atom_site_occupancy
Ge2   Ge   0.425961693360020   0.379647513346701   0.375000000000000   1.0000000
Ge2   Ge   0.576932649422793   0.455132991378061   0.375000000000000   1.0000000
N2   N   0.110631217964669   0.055308358096721   0.125225059122439   1.0000000
N2   N   0.610665970819098   0.555402593022066   0.120229750679950   1.0000000
N2   N   0.444003209568559   0.055336867738092   0.125128655421754   1.0000000
N2   N   0.943962778433376   0.555320395607193   0.125180944599814   1.0000000
N2   N   0.777352275170584   0.055342804251873   0.125096640061872   1.0000000
N2   N   0.110647610157842   0.721990471745414   0.624719101347248   1.0000000
N2   N   0.444003209568559   0.721999675163439   0.624871344578668   1.0000000
N2   N   0.277260799529389   0.221964921273428   0.626255806400486   1.0000000
N2   N   0.777316475393643   0.722006875564462   0.625797201372780   1.0000000
N2   N   0.610668601761739   0.221993821531382   0.625814617440833   1.0000000
N2   N   0.943992324433951   0.221995674998885   0.624869412583002   1.0000000
N2   N   0.277330291858529   0.721998373406042   0.125309672844640   1.0000000
N2   N   0.110609023825144   0.221971178579290   0.124922025942301   1.0000000
N2   N   0.443975788450856   0.221991669998532   0.123066181235070   1.0000000
N2   N   0.610668601761739   0.722008113563654   0.124185382559252   1.0000000
N2   N   0.943962778433376   0.721975716159582   0.125180944599814   1.0000000
N2   N   0.777345936409558   0.221989319297458   0.124969581834624   1.0000000
N2   N   0.110647400104638   0.888651174155450   0.624671518971387   1.0000000
N2   N   0.444008224396935   0.888670778865063   0.624669363521537   1.0000000
N2   N   0.277260799529389   0.388629211589460   0.626255806400486   1.0000000
N2   N   0.610665970819098   0.388596711130656   0.629770249319968   1.0000000
N2   N   0.777345936409558   0.888689950445362   0.625030418165182   1.0000000
N2   N   0.943984931693680   0.388658476321079   0.624784004904564   1.0000000
N2   N   0.110631217964669   0.388656193201429   0.125225059122439   1.0000000
N2   N   0.277330291858529   0.888665251785730   0.125309672844640   1.0000000
N2   N   0.610681978838768   0.888680555397329   0.125193910336993   1.0000000
N2   N   0.443732316225408   0.388532824779478   0.119085362718797   1.0000000
N2   N   0.943984931693680   0.888659788705852   0.125215995095311   1.0000000
N2   N   0.777316475393643   0.388642933162837   0.124202798627191   1.0000000
N2   N   0.277318193376785   0.555322546682314   0.624903153269295   1.0000000
N2   N   0.110631217964669   0.055308358096721   0.624774940877473   1.0000000
N2   N   0.610665970819098   0.555402593022066   0.629770249319969   1.0000000
N2   N   0.444003209568559   0.055336867738092   0.624871344578668   1.0000000
N2   N   0.943962778433376   0.555320395607193   0.624819055400272   1.0000000
N2   N   0.110647400104638   0.555329559282457   0.125328481028868   1.0000000
N2   N   0.777352275170584   0.055342804251873   0.624903359938006   1.0000000
N2   N   0.277318193376785   0.055328980027730   0.125096846730661   1.0000000
N2   N   0.443975788450856   0.555317451785771   0.123066181235067   1.0000000
N2   N   0.777264304669258   0.555298819001327   0.123801869589854   1.0000000
N2   N   0.610681978838768   0.055334756774598   0.125193910336993   1.0000000
N2   N   0.443975788450855   0.555317451785771   0.626933818764869   1.0000000
N2   N   0.943992324433951   0.055329982767962   0.125130587417081   1.0000000
N2   N   0.277330291858529   0.721998373406042   0.624690327155291   1.0000000
N2   N   0.110609023825144   0.221971178579290   0.625077974057708   1.0000000
N2   N   0.443975788450855   0.221991669998532   0.626933818764869   1.0000000
N2   N   0.610668601761739   0.722008113563654   0.625814617440833   1.0000000
N2   N   0.943962778433376   0.721975716159582   0.624819055400272   1.0000000
N2   N   0.777345936409558   0.221989319297458   0.625030418165182   1.0000000
N2   N   0.110647610157842   0.721990471745414   0.125280898652887   1.0000000
N2   N   0.444003209568559   0.721999675163439   0.125128655421754   1.0000000
N2   N   0.277260799529389   0.221964921273430   0.123744193599412   1.0000000
N2   N   0.777316475393643   0.722006875564462   0.124202798627191   1.0000000
N2   N   0.610668601761739   0.221993821531382   0.124185382559252   1.0000000
N2   N   0.943992324433951   0.221995674998886   0.125130587417081   1.0000000
N2   N   0.110631217964669   0.388656193201429   0.624774940877473   1.0000000
N2   N   0.277330291858529   0.888665251785730   0.624690327155291   1.0000000
N2   N   0.610681978838768   0.888680555397329   0.624806089663290   1.0000000
N2   N   0.443732316225408   0.388532824779478   0.630914637281354   1.0000000
N2   N   0.943984931693680   0.888659788705852   0.624784004904564   1.0000000
N2   N   0.110647400104638   0.888651174155450   0.125328481028868   1.0000000
N2   N   0.777316475393643   0.388642933162837   0.625797201372780   1.0000000
N2   N   0.444008224396935   0.888670778865063   0.125330636478555   1.0000000
N2   N   0.277260799529389   0.388629211589460   0.123744193599412   1.0000000
N2   N   0.277318193376785   0.555322546682314   0.125096846730661   1.0000000
N2   N   0.610665970819098   0.388596711130656   0.120229750679950   1.0000000
N2   N   0.777345936409558   0.888689950445362   0.124969581834624   1.0000000
N2   N   0.943984931693680   0.388658476321079   0.125215995095311   1.0000000
N2   N   0.110647400104638   0.555329559282457   0.624671518971387   1.0000000
N2   N   0.277318193376785   0.055328980027729   0.624903153269295   1.0000000
N2   N   0.777264304669258   0.555298819001327   0.626198130410127   1.0000000
N2   N   0.610681978838768   0.055334756774598   0.624806089663290   1.0000000
N2   N   0.943992324433951   0.055329982767962   0.624869412583002   1.0000000
N2   N   0.055378442538777   0.110903929280644   0.375000000000000   1.0000000
N2   N   0.556201695972201   0.624669493163902   0.375000000000000   1.0000000
N2   N   0.386910185935951   0.102074277444903   0.375000000000000   1.0000000
N2   N   0.892076082088015   0.612704707710936   0.375000000000000   1.0000000
N2   N   0.723777435968517   0.110395234311541   0.375000000000000   1.0000000
N2   N   0.055890135292194   0.777946574849320   0.875000000000000   1.0000000
N2   N   0.389213808189326   0.777946217256808   0.875000000000000   1.0000000
N2   N   0.222551252713730   0.277942293023526   0.875000000000000   1.0000000
N2   N   0.722549221973782   0.777941443254763   0.875000000000000   1.0000000
N2   N   0.555871702776039   0.277924412358321   0.875000000000000   1.0000000
N2   N   0.889221426367308   0.277943265347353   0.875000000000000   1.0000000
N2   N   0.221542600754946   0.777437967044216   0.375000000000000   1.0000000
N2   N   0.055378442538777   0.277807846591418   0.375000000000000   1.0000000
N2   N   0.373185438100461   0.249151008193853   0.375000000000000   1.0000000
N2   N   0.555897692924753   0.784008839572925   0.375000000000000   1.0000000
N2   N   0.894502423531277   0.782877052814413   0.375000000000000   1.0000000
N2   N   0.725287881879447   0.275164660077286   0.375000000000000   1.0000000
N2   N   0.055886888251909   0.944610856828098   0.875000000000000   1.0000000
N2   N   0.389213808189326   0.944600924265922   0.875000000000000   1.0000000
N2   N   0.222549423296165   0.444615620145642   0.875000000000000   1.0000000
N2   N   0.555880663073068   0.444606998203198   0.875000000000000   1.0000000
N2   N   0.722547802539893   0.944608143396316   0.875000000000000   1.0000000
N2   N   0.889226963286042   0.444612041378512   0.875000000000000   1.0000000
N2   N   0.055094156284083   0.445385906025207   0.375000000000000   1.0000000
N2   N   0.220851094330024   0.941145872897260   0.375000000000000   1.0000000
N2   N   0.555887289122375   0.944610311227671   0.375000000000000   1.0000000
N2   N   0.373185438100461   0.457367763239851   0.375000000000000   1.0000000
N2   N   0.890671626246471   0.946599689539512   0.375000000000000   1.0000000
N2   N   0.735256419995613   0.443663603407350   0.375000000000000   1.0000000
N2   N   0.222549486202312   0.611280222160750   0.875000000000000   1.0000000
N2   N   0.055888090788372   0.111276495489308   0.875000000000000   1.0000000
N2   N   0.555871702776039   0.611280623751420   0.875000000000000   1.0000000
N2   N   0.389210431334664   0.111256676374159   0.875000000000000   1.0000000
N2   N   0.889232879087847   0.611283106210662   0.875000000000000   1.0000000
N2   N   0.056267245612738   0.611939822150088   0.375000000000000   1.0000000
N2   N   0.722547802539893   0.111272992476862   0.875000000000000   1.0000000
N2   N   0.215232968283104   0.101823794322594   0.375000000000000   1.0000000
N2   N   0.386910185935951   0.618169241824558   0.375000000000000   1.0000000
N2   N   0.735256419995613   0.624926149921649   0.375000000000000   1.0000000
N2   N   0.555897692924753   0.105222186684882   0.375000000000000   1.0000000
N2   N   0.389210431334664   0.611287088293857   0.875000000000000   1.0000000
N2   N   0.890019113361539   0.111676223347598   0.375000000000000   1.0000000
N2   N   0.222550529874254   0.777941931603813   0.875000000000000   1.0000000
N2   N   0.055888090788372   0.277944928632410   0.875000000000000   1.0000000
N2   N   0.389208046958803   0.277920009124641   0.875000000000000   1.0000000
N2   N   0.555876444083186   0.777944896244618   0.875000000000000   1.0000000
N2   N   0.889226963286042   0.777948255241168   0.875000000000000   1.0000000
N2   N   0.722549221973782   0.277941112052422   0.875000000000000   1.0000000
N2   N   0.056267245612738   0.777660756795841   0.375000000000000   1.0000000
N2   N   0.387957441911224   0.779816024279083   0.375000000000000   1.0000000
N2   N   0.220998278732649   0.277165806032968   0.375000000000000   1.0000000
N2   N   0.725287881879447   0.783456555135120   0.375000000000000   1.0000000
N2   N   0.556201695972201   0.264865536141966   0.375000000000000   1.0000000
N2   N   0.890671626246471   0.277405270040017   0.375000000000000   1.0000000
N2   N   0.055886888251909   0.444609364757347   0.875000000000000   1.0000000
N2   N   0.222549486202312   0.944602597374518   0.875000000000000   1.0000000
N2   N   0.555877673414441   0.944605503373962   0.875000000000000   1.0000000
N2   N   0.389208046958803   0.444621371167450   0.875000000000000   1.0000000
N2   N   0.889221426367308   0.944611494352787   0.875000000000000   1.0000000
N2   N   0.055094156284082   0.943041583592318   0.375000000000000   1.0000000
N2   N   0.722562988458132   0.444616431929282   0.875000000000000   1.0000000
N2   N   0.387957441911224   0.941474750965767   0.375000000000000   1.0000000
N2   N   0.215232968283104   0.446742507293878   0.375000000000000   1.0000000
N2   N   0.220851094330024   0.613038554765970   0.375000000000000   1.0000000
N2   N   0.723777435968517   0.946715534990514   0.375000000000000   1.0000000
N2   N   0.894502423531277   0.444958704050366   0.375000000000000   1.0000000
N2   N   0.055890135292194   0.611276893776221   0.875000000000000   1.0000000
N2   N   0.222549423296165   0.111267136483890   0.875000000000000   1.0000000
N2   N   0.722562988458132   0.611279889862069   0.875000000000000   1.0000000
N2   N   0.555876444083186   0.111264881171882   0.875000000000000   1.0000000
N2   N   0.889221784339955   0.111277558836607   0.875000000000000   1.0000000
B2   B   0.107067815493118   0.051633634827127   0.375000000000000   1.0000000
B2   B   0.627185547384816   0.588372473603201   0.375000000000000   1.0000000
B2   B   0.444644525407477   0.050384643857874   0.375000000000000   1.0000000
B2   B   0.946424323405630   0.555970175814298   0.375000000000000   1.0000000
B2   B   0.779597869905238   0.056465601619335   0.375000000000000   1.0000000
B2   B   0.111436126386040   0.722384729859559   0.875000000000000   1.0000000
B2   B   0.444779753496094   0.722394090329235   0.875000000000000   1.0000000
B2   B   0.278130600336846   0.222390210354895   0.875000000000000   1.0000000
B2   B   0.778090262859331   0.722360039532942   0.875000000000000   1.0000000
B2   B   0.611431670836774   0.222397275940192   0.875000000000000   1.0000000
B2   B   0.944760796408284   0.222384157572690   0.875000000000000   1.0000000
B2   B   0.277245621585779   0.723373318595620   0.375000000000000   1.0000000
B2   B   0.110113082725247   0.221723208029328   0.375000000000000   1.0000000
B2   B   0.443336268383907   0.210718322309186   0.375000000000000   1.0000000
B2   B   0.613444596604445   0.732792354041269   0.375000000000000   1.0000000
B2   B   0.946424323405630   0.723787480924830   0.375000000000000   1.0000000
B2   B   0.780197527176556   0.220700088234286   0.375000000000000   1.0000000
B2   B   0.111435351020594   0.889045875356925   0.875000000000000   1.0000000
B2   B   0.444777968435548   0.889055650884473   0.875000000000000   1.0000000
B2   B   0.278130600336846   0.389073723315261   0.875000000000000   1.0000000
B2   B   0.611427383868694   0.389074126734700   0.875000000000000   1.0000000
B2   B   0.778093946923061   0.889036118966096   0.875000000000000   1.0000000
B2   B   0.944760877729550   0.389054513090594   0.875000000000000   1.0000000
B2   B   0.107067815493118   0.388767513999429   0.375000000000000   1.0000000
B2   B   0.277245621585779   0.887205636323716   0.375000000000000   1.0000000
B2   B   0.612934614175855   0.892677733400466   0.375000000000000   1.0000000
B2   B   0.946393157978825   0.891468367731975   0.375000000000000   1.0000000
B2   B   0.786263187631509   0.387074650776480   0.375000000000000   1.0000000
B2   B   0.278116140893687   0.555734707193764   0.875000000000000   1.0000000
B2   B   0.111437760299307   0.055711302751399   0.875000000000000   1.0000000
B2   B   0.611427383868694   0.555686590467600   0.875000000000000   1.0000000
B2   B   0.444779753496094   0.055718996500256   0.875000000000000   1.0000000
B2   B   0.944763434888890   0.555718688095731   0.875000000000000   1.0000000
B2   B   0.110597976314590   0.556284913153985   0.375000000000000   1.0000000
B2   B   0.778095327272071   0.055714330302756   0.875000000000000   1.0000000
B2   B   0.275510354780509   0.050394310646241   0.375000000000000   1.0000000
B2   B   0.443336268383907   0.565951279408410   0.375000000000000   1.0000000
B2   B   0.782378703325167   0.557856018329035   0.375000000000000   1.0000000
B2   B   0.612934614175855   0.053590214108624   0.375000000000000   1.0000000
B2   B   0.444792433617917   0.555732748933053   0.875000000000000   1.0000000
B2   B   0.945203567519307   0.056610359801571   0.375000000000000   1.0000000
B2   B   0.278110580990591   0.722391765018600   0.875000000000000   1.0000000
B2   B   0.111440525665370   0.222386929499316   0.875000000000000   1.0000000
B2   B   0.444792433617917   0.222393018018600   0.875000000000000   1.0000000
B2   B   0.611431670836774   0.722367728229860   0.875000000000000   1.0000000
B2   B   0.944763434888890   0.722378080126460   0.875000000000000   1.0000000
B2   B   0.778093946923061   0.222391161290071   0.875000000000000   1.0000000
B2   B   0.111287908060295   0.722310620696912   0.375000000000000   1.0000000
B2   B   0.444644525407477   0.727593214882620   0.375000000000000   1.0000000
B2   B   0.267015179939758   0.209570661173216   0.375000000000000   1.0000000
B2   B   0.786263187631507   0.732521870188825   0.375000000000000   1.0000000
B2   B   0.613444596604445   0.213985575896580   0.375000000000000   1.0000000
B2   B   0.945203567519307   0.221926541051144   0.375000000000000   1.0000000
B2   B   0.111437760299307   0.389059790881309   0.875000000000000   1.0000000
B2   B   0.278110580990591   0.889052149305114   0.875000000000000   1.0000000
B2   B   0.611435929080685   0.889047701043176   0.875000000000000   1.0000000
B2   B   0.444821960433146   0.389077646883353   0.875000000000000   1.0000000
B2   B   0.944760877729550   0.889039697972269   0.875000000000000   1.0000000
B2   B   0.110597976314590   0.887646396493870   0.375000000000000   1.0000000
B2   B   0.778090262859331   0.389063556659922   0.875000000000000   1.0000000
B2   B   0.444873470279041   0.889103401805967   0.375000000000000   1.0000000
B2   B   0.267015179939758   0.390777852099859   0.375000000000000   1.0000000
B2   B   0.275510354780509   0.558449377467606   0.375000000000000   1.0000000
B2   B   0.627185547384816   0.372146407114860   0.375000000000000   1.0000000
B2   B   0.780197527176556   0.892830772275800   0.375000000000000   1.0000000
B2   B   0.946393157978825   0.388258123580344   0.375000000000000   1.0000000
B2   B   0.111435351020594   0.555722808996792   0.875000000000000   1.0000000
B2   B   0.278116140893688   0.055714767033157   0.875000000000000   1.0000000
B2   B   0.778089660597514   0.555711496965696   0.875000000000000   1.0000000
B2   B   0.611435929080685   0.055721561370769   0.875000000000000   1.0000000
B2   B   0.944760796408284   0.055709972168900   0.875000000000000   1.0000000
B2   B   0.055055744227672   0.110848522360820   0.125054917102251   1.0000000
B2   B   0.555182317671289   0.610822459444913   0.122459533272950   1.0000000
B2   B   0.388483458649624   0.110938789312412   0.124521143270121   1.0000000
B2   B   0.888310047969913   0.610821690651773   0.124815360074477   1.0000000
B2   B   0.721798099739696   0.110900479766898   0.125087575163303   1.0000000
B2   B   0.055051887176822   0.777519588758121   0.624758813599331   1.0000000
B2   B   0.388468823878288   0.777558735367125   0.624746050600099   1.0000000
B2   B   0.221688436998882   0.277510885166153   0.626125478650498   1.0000000
B2   B   0.721767336645150   0.777541412159516   0.625576752421274   1.0000000
B2   B   0.555182317671289   0.277693191560256   0.627540466726893   1.0000000
B2   B   0.888416786769162   0.277544229067436   0.624904490101880   1.0000000
B2   B   0.221768107774654   0.777550720553809   0.125242759583930   1.0000000
B2   B   0.055055744227672   0.277540555200245   0.125054917102251   1.0000000
B2   B   0.388470995250384   0.277574385994310   0.121500612580670   1.0000000
B2   B   0.555155411829715   0.777552324113997   0.124879211130601   1.0000000
B2   B   0.888365080446971   0.777510641539277   0.124910151537984   1.0000000
B2   B   0.721767336645150   0.277559257819228   0.124423247578633   1.0000000
B2   B   0.055060939526651   0.944180291040737   0.624747356295882   1.0000000
B2   B   0.388468823878288   0.944243421845153   0.624746050600099   1.0000000
B2   B   0.221735416917083   0.444228045151006   0.625293637198667   1.0000000
B2   B   0.555125766489203   0.444229549911266   0.628792189770226   1.0000000
B2   B   0.721798099739696   0.944230953306376   0.624912424836923   1.0000000
B2   B   0.888365080446971   0.444187772241058   0.625089848462125   1.0000000
B2   B   0.055060939526651   0.444213981819279   0.125252643703837   1.0000000
B2   B   0.221765770730062   0.944211478608787   0.125238487291174   1.0000000
B2   B   0.555144279997504   0.944238806665499   0.125244194211490   1.0000000
B2   B   0.388470995250384   0.444229942589345   0.121500612580669   1.0000000
B2   B   0.888416786769162   0.944205891035303   0.125095509898057   1.0000000
B2   B   0.721605769220031   0.444137305875538   0.122751774400279   1.0000000
B2   B   0.221765770730062   0.610887625454513   0.624761512708795   1.0000000
B2   B   0.055055744227672   0.110848522360820   0.624945082897590   1.0000000
B2   B   0.555182317671289   0.610822459444913   0.627540466726893   1.0000000
B2   B   0.388483458649624   0.110938789312412   0.625478856729737   1.0000000
B2   B   0.888310047969913   0.610821690651773   0.625184639925361   1.0000000
B2   B   0.055051887176822   0.610865631752224   0.125241186400492   1.0000000
B2   B   0.721798099739696   0.110900479766898   0.624912424836923   1.0000000
B2   B   0.221735416917083   0.110840705099333   0.124706362801200   1.0000000
B2   B   0.388483458649624   0.610878002670454   0.124521143270121   1.0000000
B2   B   0.721605769220031   0.610801796677793   0.122751774400279   1.0000000
B2   B   0.555155411829715   0.110936421048867   0.124879211130601   1.0000000
B2   B   0.388483458649624   0.610878002670454   0.625478856729737   1.0000000
B2   B   0.888431389131203   0.110882361232355   0.125089880864723   1.0000000
B2   B   0.221768107774654   0.777550720553809   0.624757240416147   1.0000000
B2   B   0.055055744227672   0.277540555200245   0.624945082897590   1.0000000
B2   B   0.388470995250384   0.277574385994310   0.628499387419394   1.0000000
B2   B   0.555155411829715   0.777552324113997   0.625120788869275   1.0000000
B2   B   0.888365080446971   0.777510641539277   0.625089848462125   1.0000000
B2   B   0.721767336645150   0.277559257819228   0.625576752421274   1.0000000
B2   B   0.055051887176822   0.777519588758121   0.125241186400492   1.0000000
B2   B   0.388468823878288   0.777558735367125   0.125253949399929   1.0000000
B2   B   0.221688436998882   0.277510885166153   0.123874521349159   1.0000000
B2   B   0.721767336645150   0.777541412159516   0.124423247578633   1.0000000
B2   B   0.555182317671289   0.277693191560256   0.122459533272950   1.0000000
B2   B   0.888416786769162   0.277544229067436   0.125095509898057   1.0000000
B2   B   0.055060939526651   0.444213981819279   0.624747356295882   1.0000000
B2   B   0.221765770730062   0.944211478608787   0.624761512708795   1.0000000
B2   B   0.555144279997504   0.944238806665499   0.624755805788490   1.0000000
B2   B   0.388470995250384   0.444229942589345   0.628499387419394   1.0000000
B2   B   0.888416786769162   0.944205891035303   0.624904490101880   1.0000000
B2   B   0.055060939526651   0.944180291040737   0.125252643703837   1.0000000
B2   B   0.721605769220031   0.444137305875538   0.627248225599700   1.0000000
B2   B   0.388468823878288   0.944243421845153   0.125253949399929   1.0000000
B2   B   0.221735416917083   0.444228045151006   0.124706362801200   1.0000000
B2   B   0.221765770730062   0.610887625454513   0.125238487291174   1.0000000
B2   B   0.555125766489203   0.444229549911266   0.121207810229841   1.0000000
B2   B   0.721798099739696   0.944230953306376   0.125087575163303   1.0000000
B2   B   0.888365080446971   0.444187772241058   0.124910151537984   1.0000000
B2   B   0.055051887176822   0.610865631752224   0.624758813599331   1.0000000
B2   B   0.221735416917083   0.110840705099333   0.625293637198667   1.0000000
B2   B   0.721605769220031   0.610801796677793   0.627248225599700   1.0000000
B2   B   0.555155411829715   0.110936421048867   0.625120788869275   1.0000000
B2   B   0.888431389131203   0.110882361232355   0.624910119135561   1.0000000


