data_1
_audit_creation_method   'vasp2cif'
_cell_length_a    14.93631414619966
_cell_length_b    14.936314146199727
_cell_length_c    13.341276283792837
_cell_angle_alpha    90.0
_cell_angle_beta    90.0
_cell_angle_gamma    119.99999999999984

_symmetry_space_group_name_H-M    'P 1'
loop_
_atom_site_label
_atom_site_type_symbol
_atom_site_fract_x
_atom_site_fract_y
_atom_site_fract_z
_atom_site_occupancy
P2   P   0.444444444444443   0.388888888888886   0.375000000000000   1.0000000
N2   N   0.111104325826571   0.055550758668171   0.123410288544778   1.0000000
N2   N   0.611113755496783   0.555561364867590   0.123205247904891   1.0000000
N2   N   0.444446432841366   0.055550758668172   0.123410288544779   1.0000000
N2   N   0.944441650432607   0.555553081204406   0.123639905403885   1.0000000
N2   N   0.777777777777779   0.055555555555557   0.123672410821566   1.0000000
N2   N   0.111111111111114   0.722222222222221   0.626242980465039   1.0000000
N2   N   0.444446432841366   0.722229007506829   0.626589711455011   1.0000000
N2   N   0.277771968465569   0.222219577836651   0.626794752094741   1.0000000
N2   N   0.777782574665161   0.722229007506829   0.626589711455011   1.0000000
N2   N   0.611111982515698   0.222221350817808   0.626699929824052   1.0000000
N2   N   0.944444263100210   0.222222943327651   0.626424068190082   1.0000000
N2   N   0.277780252128786   0.722221902561837   0.123639905403885   1.0000000
N2   N   0.111109368302269   0.222221350817808   0.123300070176019   1.0000000
N2   N   0.444447609371133   0.222219577836651   0.123205247904905   1.0000000
N2   N   0.611111982515698   0.722223965031313   0.123300070176019   1.0000000
N2   N   0.944441650432607   0.722221902561837   0.123639905403885   1.0000000
N2   N   0.777778680227777   0.222222943327655   0.123575931809316   1.0000000
N2   N   0.111111430771662   0.888891682900722   0.626360094595758   1.0000000
N2   N   0.444445940827286   0.888889637080288   0.626390776901560   1.0000000
N2   N   0.277771968465569   0.388885723962196   0.626794752094741   1.0000000
N2   N   0.611113755496783   0.388885723962196   0.626794752094741   1.0000000
N2   N   0.777778680227777   0.888889070233119   0.626424068190082   1.0000000
N2   N   0.944443696253041   0.388887392506042   0.626390776901560   1.0000000
N2   N   0.111104325826633   0.388886900491963   0.123410288544779   1.0000000
N2   N   0.277780252128786   0.888891682900722   0.123639905403885   1.0000000
N2   N   0.611110390005765   0.888889070233119   0.123575931809316   1.0000000
N2   N   0.444444444444443   0.388888888888886   0.123169478359173   1.0000000
N2   N   0.944443696253041   0.888889637080288   0.123609223098161   1.0000000
N2   N   0.777782574665161   0.388886900491963   0.123410288544779   1.0000000
N2   N   0.277780720697330   0.555552612636027   0.626613980644014   1.0000000
N2   N   0.111104325826633   0.055550758668178   0.626589711455011   1.0000000
N2   N   0.611113755496783   0.555561364867590   0.626794752094741   1.0000000
N2   N   0.444446432841366   0.055550758668177   0.626589711455011   1.0000000
N2   N   0.944441650432607   0.555553081204406   0.626360094595758   1.0000000
N2   N   0.111111430771662   0.555553081204406   0.123639905403885   1.0000000
N2   N   0.777777777777779   0.055555555555557   0.626327589178081   1.0000000
N2   N   0.277780720697330   0.055561441394338   0.123386019355938   1.0000000
N2   N   0.444447609371133   0.555561364867590   0.123205247904906   1.0000000
N2   N   0.777771891938683   0.555552612636027   0.123386019355938   1.0000000
N2   N   0.611110390005765   0.055554653106006   0.123575931809316   1.0000000
N2   N   0.444447609371133   0.555561364867590   0.626794752094741   1.0000000
N2   N   0.944444263100210   0.055554653106006   0.123575931809316   1.0000000
N2   N   0.277780252128786   0.722221902561837   0.626360094595758   1.0000000
N2   N   0.111109368302270   0.222221350817808   0.626699929824052   1.0000000
N2   N   0.444447609371133   0.222219577836642   0.626794752094741   1.0000000
N2   N   0.611111982515698   0.722223965031131   0.626699929824052   1.0000000
N2   N   0.944441650432607   0.722221902561837   0.626360094595758   1.0000000
N2   N   0.777778680227777   0.222222943327651   0.626424068190082   1.0000000
N2   N   0.111111111111114   0.722222222222221   0.123757019534970   1.0000000
N2   N   0.444446432841366   0.722229007506829   0.123410288544777   1.0000000
N2   N   0.277771968465569   0.222219577836651   0.123205247904906   1.0000000
N2   N   0.777782574665161   0.722229007506829   0.123410288544779   1.0000000
N2   N   0.611111982515698   0.222221350817808   0.123300070176019   1.0000000
N2   N   0.944444263100210   0.222222943327651   0.123575931809316   1.0000000
N2   N   0.111104325826633   0.388886900491963   0.626589711455011   1.0000000
N2   N   0.277780252128786   0.888891682900722   0.626360094595758   1.0000000
N2   N   0.611110390005765   0.888889070233119   0.626424068190082   1.0000000
N2   N   0.444444444444443   0.388888888888886   0.626830521640624   1.0000000
N2   N   0.944443696253041   0.888889637080288   0.626390776901560   1.0000000
N2   N   0.111111430771662   0.888891682900722   0.123639905403885   1.0000000
N2   N   0.777782574665161   0.388886900491963   0.626589711455011   1.0000000
N2   N   0.444445940827286   0.888889637080288   0.123609223098160   1.0000000
N2   N   0.277771968465569   0.388885723962196   0.123205247904906   1.0000000
N2   N   0.277780720697330   0.555552612636027   0.123386019355939   1.0000000
N2   N   0.611113755496783   0.388885723962196   0.123205247904906   1.0000000
N2   N   0.777778680227777   0.888889070233119   0.123575931809316   1.0000000
N2   N   0.944443696253041   0.388887392506042   0.123609223098160   1.0000000
N2   N   0.111111430771662   0.555553081204406   0.626360094595758   1.0000000
N2   N   0.277780720697330   0.055561441394338   0.626613980644014   1.0000000
N2   N   0.777771891938683   0.555552612636027   0.626613980644014   1.0000000
N2   N   0.611110390005765   0.055554653106006   0.626424068190082   1.0000000
N2   N   0.944444263100210   0.055554653106006   0.626424068190082   1.0000000
N2   N   0.054920697332602   0.110620328351369   0.375000000000000   1.0000000
N2   N   0.556035980356465   0.612071960713108   0.375000000000000   1.0000000
N2   N   0.388134568310195   0.107871142475852   0.375000000000000   1.0000000
N2   N   0.890100363257835   0.611716848295558   0.375000000000000   1.0000000
N2   N   0.722330121178677   0.111003212154690   0.375000000000000   1.0000000
N2   N   0.055553705340287   0.777779627993185   0.875000000000000   1.0000000
N2   N   0.388890232486595   0.777778707125086   0.875000000000000   1.0000000
N2   N   0.222233036295667   0.277783184814413   0.875000000000000   1.0000000
N2   N   0.722219305039546   0.777774702299107   0.875000000000000   1.0000000
N2   N   0.555550148519001   0.277783184814418   0.875000000000000   1.0000000
N2   N   0.888889784336214   0.277779568672096   0.875000000000000   1.0000000
N2   N   0.222001346911655   0.777667340122238   0.375000000000000   1.0000000
N2   N   0.054920697332602   0.277633702314361   0.375000000000000   1.0000000
N2   N   0.383243415839555   0.266486831678900   0.375000000000000   1.0000000
N2   N   0.555699631018761   0.778412636000807   0.375000000000000   1.0000000
N2   N   0.889770300764220   0.778490065554609   0.375000000000000   1.0000000
N2   N   0.722713004981960   0.277633702314361   0.375000000000000   1.0000000
N2   N   0.055554626208481   0.944444858694949   0.875000000000000   1.0000000
N2   N   0.388890232486595   0.944444858694949   0.875000000000000   1.0000000
N2   N   0.222229277942620   0.444442310235829   0.875000000000000   1.0000000
N2   N   0.555552911245496   0.444443122289409   0.875000000000000   1.0000000
N2   N   0.722220712487502   0.944441424974813   0.875000000000000   1.0000000
N2   N   0.888888474638379   0.444443100846734   0.875000000000000   1.0000000
N2   N   0.054843267778953   0.444613568543159   0.375000000000000   1.0000000
N2   N   0.221616485037590   0.943232970075494   0.375000000000000   1.0000000
N2   N   0.555711919026042   0.944522626180282   0.375000000000000   1.0000000
N2   N   0.383243415839555   0.450089917493774   0.375000000000000   1.0000000
N2   N   0.888810707153047   0.944522626180282   0.375000000000000   1.0000000
N2   N   0.725462190857466   0.445198765023284   0.375000000000000   1.0000000
N2   N   0.222225792981199   0.611107540352230   0.875000000000000   1.0000000
N2   N   0.055558631034109   0.111114028293638   0.875000000000000   1.0000000
N2   N   0.555550148519001   0.611100297037835   0.875000000000000   1.0000000
N2   N   0.388891023097499   0.111120301040301   0.875000000000000   1.0000000
N2   N   0.888881747370976   0.611107540352230   0.875000000000000   1.0000000
N2   N   0.055665993210824   0.611331986421211   0.375000000000000   1.0000000
N2   N   0.722220712487502   0.111112620845957   0.875000000000000   1.0000000
N2   N   0.219736574165617   0.107871142475852   0.375000000000000   1.0000000
N2   N   0.388134568310050   0.613596759167371   0.375000000000000   1.0000000
N2   N   0.725462190857466   0.613596759167371   0.375000000000000   1.0000000
N2   N   0.555699631018761   0.110620328351369   0.375000000000000   1.0000000
N2   N   0.388891023097499   0.611104055390755   0.875000000000000   1.0000000
N2   N   0.888673090975859   0.111003212154690   0.375000000000000   1.0000000
N2   N   0.222225922652777   0.777779627993185   0.875000000000000   1.0000000
N2   N   0.055558631034109   0.277777936073933   0.875000000000000   1.0000000
N2   N   0.388890211043920   0.277780422087817   0.875000000000000   1.0000000
N2   N   0.555555397259335   0.777774702299107   0.875000000000000   1.0000000
N2   N   0.888888474638379   0.777778707125086   0.875000000000000   1.0000000
N2   N   0.722219305039546   0.277777936073933   0.875000000000000   1.0000000
N2   N   0.055665993210824   0.777667340122238   0.375000000000000   1.0000000
N2   N   0.388719764790170   0.778490065554609   0.375000000000000   1.0000000
N2   N   0.221261372619885   0.277297352976782   0.375000000000000   1.0000000
N2   N   0.722713004981960   0.778412636000807   0.375000000000000   1.0000000
N2   N   0.556035980356641   0.277297352976782   0.375000000000000   1.0000000
N2   N   0.888810707153047   0.277621414307073   0.375000000000000   1.0000000
N2   N   0.055554626208481   0.444443100846734   0.875000000000000   1.0000000
N2   N   0.222225792981199   0.944451585962353   0.875000000000000   1.0000000
N2   N   0.555553764661052   0.944443548997115   0.875000000000000   1.0000000
N2   N   0.388890211043919   0.444443122289409   0.875000000000000   1.0000000
N2   N   0.888889784336214   0.944443548997115   0.875000000000000   1.0000000
N2   N   0.054843267778953   0.943563032569109   0.375000000000000   1.0000000
N2   N   0.722213032292644   0.444442310235829   0.875000000000000   1.0000000
N2   N   0.388719764790156   0.943563032569109   0.375000000000000   1.0000000
N2   N   0.219736574165636   0.445198765023282   0.375000000000000   1.0000000
N2   N   0.221616485037584   0.611716848295558   0.375000000000000   1.0000000
N2   N   0.566846501654226   0.450089917493774   0.375000000000000   1.0000000
N2   N   0.722330121178677   0.944660242357469   0.375000000000000   1.0000000
N2   N   0.889770300764220   0.444613568543159   0.375000000000000   1.0000000
N2   N   0.055553705340287   0.611107410680470   0.875000000000000   1.0000000
N2   N   0.222229277942620   0.111120301040301   0.875000000000000   1.0000000
N2   N   0.722213032292644   0.611104055390755   0.875000000000000   1.0000000
N2   N   0.555555397259335   0.111114028293638   0.875000000000000   1.0000000
N2   N   0.888891908358516   0.111112620845957   0.875000000000000   1.0000000
B2   B   0.109023706906599   0.053639952264557   0.375000000000000   1.0000000
B2   B   0.616529178856812   0.561514847526861   0.375000000000000   1.0000000
B2   B   0.444616245357795   0.053639952264557   0.375000000000000   1.0000000
B2   B   0.945064910468123   0.555796634569051   0.375000000000000   1.0000000
B2   B   0.777777777777779   0.055555555555557   0.375000000000000   1.0000000
B2   B   0.111111111111114   0.722222222222221   0.875000000000000   1.0000000
B2   B   0.444452365814566   0.722247392696649   0.875000000000000   1.0000000
B2   B   0.277743066485613   0.222200112764236   0.875000000000000   1.0000000
B2   B   0.777795026882261   0.722247392696649   0.875000000000000   1.0000000
B2   B   0.611125897358348   0.222207435975024   0.875000000000000   1.0000000
B2   B   0.944425730073511   0.222215011469162   0.875000000000000   1.0000000
B2   B   0.277536698764544   0.722601609232536   0.375000000000000   1.0000000
B2   B   0.109611725164765   0.221472529249092   0.375000000000000   1.0000000
B2   B   0.444985668670213   0.216804154476574   0.375000000000000   1.0000000
B2   B   0.611860804084230   0.723721608168116   0.375000000000000   1.0000000
B2   B   0.945064910468123   0.722601609232536   0.375000000000000   1.0000000
B2   B   0.778012113585862   0.221906915193056   0.375000000000000   1.0000000
B2   B   0.111110780438028   0.888883474329662   0.875000000000000   1.0000000
B2   B   0.444454290292765   0.888893811812943   0.875000000000000   1.0000000
B2   B   0.277743066485613   0.388876287054701   0.875000000000000   1.0000000
B2   B   0.611133220568614   0.388876287054701   0.875000000000000   1.0000000
B2   B   0.777789281395366   0.888907603259817   0.875000000000000   1.0000000
B2   B   0.944439521520385   0.388879043040563   0.875000000000000   1.0000000
B2   B   0.109023706906600   0.388717087975533   0.375000000000000   1.0000000
B2   B   0.277536698764544   0.888268422865205   0.375000000000000   1.0000000
B2   B   0.611426418140452   0.889438531726045   0.375000000000000   1.0000000
B2   B   0.944310852214712   0.889022481118617   0.375000000000000   1.0000000
B2   B   0.779693381068999   0.388717087975533   0.375000000000000   1.0000000
B2   B   0.277762815074781   0.555570518258564   0.875000000000000   1.0000000
B2   B   0.111085940636339   0.055538306450977   0.875000000000000   1.0000000
B2   B   0.611133220568614   0.555590266847588   0.875000000000000   1.0000000
B2   B   0.444452365814566   0.055538306450976   0.875000000000000   1.0000000
B2   B   0.944449859003667   0.555560639441941   0.875000000000000   1.0000000
B2   B   0.110731724100847   0.555796634569051   0.375000000000000   1.0000000
B2   B   0.777777777777779   0.055555555555557   0.875000000000000   1.0000000
B2   B   0.276628987484356   0.053257974968916   0.375000000000000   1.0000000
B2   B   0.444985668670213   0.561514847526861   0.375000000000000   1.0000000
B2   B   0.780075358364629   0.556704345848604   0.375000000000000   1.0000000
B2   B   0.611426418140452   0.055321219747659   0.375000000000000   1.0000000
B2   B   0.444457046278627   0.555590266847588   0.875000000000000   1.0000000
B2   B   0.943894801607284   0.055321219747659   0.375000000000000   1.0000000
B2   B   0.277772693891288   0.722222552895407   0.875000000000000   1.0000000
B2   B   0.111081538616800   0.222207435975024   0.875000000000000   1.0000000
B2   B   0.444457046278627   0.222200112764236   0.875000000000000   1.0000000
B2   B   0.611125897358348   0.722251794716772   0.875000000000000   1.0000000
B2   B   0.944449859003667   0.722222552895407   0.875000000000000   1.0000000
B2   B   0.777789281395366   0.222215011469162   0.875000000000000   1.0000000
B2   B   0.111111111111114   0.722222222222221   0.375000000000000   1.0000000
B2   B   0.444616245357795   0.724309626426946   0.375000000000000   1.0000000
B2   B   0.271818485806488   0.216804154476571   0.375000000000000   1.0000000
B2   B   0.779693381069005   0.724309626426946   0.375000000000000   1.0000000
B2   B   0.611860804084230   0.221472529249092   0.375000000000000   1.0000000
B2   B   0.943894801607284   0.221906915193056   0.375000000000000   1.0000000
B2   B   0.111085940636339   0.388880967518762   0.875000000000000   1.0000000
B2   B   0.277772693891288   0.888883474329662   0.875000000000000   1.0000000
B2   B   0.611118321863965   0.888907603259817   0.875000000000000   1.0000000
B2   B   0.444444444444443   0.388888888888886   0.875000000000000   1.0000000
B2   B   0.944439521520385   0.888893811812943   0.875000000000000   1.0000000
B2   B   0.110731724100848   0.888268422865205   0.375000000000000   1.0000000
B2   B   0.777795026882261   0.388880967518762   0.875000000000000   1.0000000
B2   B   0.444711628904310   0.889022481118617   0.375000000000000   1.0000000
B2   B   0.271818485806488   0.388347664663116   0.375000000000000   1.0000000
B2   B   0.276628987484357   0.556704345848604   0.375000000000000   1.0000000
B2   B   0.616529178856812   0.388347664663116   0.375000000000000   1.0000000
B2   B   0.778012113585862   0.889438531726045   0.375000000000000   1.0000000
B2   B   0.944310852214712   0.388621704429019   0.375000000000000   1.0000000
B2   B   0.111110780438028   0.555560639441941   0.875000000000000   1.0000000
B2   B   0.277762815074781   0.055525630149639   0.875000000000000   1.0000000
B2   B   0.777807703183782   0.555570518258564   0.875000000000000   1.0000000
B2   B   0.611118321863965   0.055544051937868   0.875000000000000   1.0000000
B2   B   0.944425730073511   0.055544051937868   0.875000000000000   1.0000000
B2   B   0.055506135152058   0.111055768534302   0.123332720637738   1.0000000
B2   B   0.555613000428411   0.611226000857133   0.122950688813535   1.0000000
B2   B   0.388867303677695   0.110986634491018   0.123151416101816   1.0000000
B2   B   0.888951124324758   0.611142228829381   0.123496354500477   1.0000000
B2   B   0.722239816289678   0.111093517043784   0.123569062003892   1.0000000
B2   B   0.055570554680727   0.777762778652927   0.626340653279332   1.0000000
B2   B   0.388884053570232   0.777795568692350   0.626504414590727   1.0000000
B2   B   0.222107332476378   0.277720332904769   0.627049311186449   1.0000000
B2   B   0.722277564798960   0.777827198181481   0.626667279362215   1.0000000
B2   B   0.555613000428411   0.277720332904769   0.627049311186393   1.0000000
B2   B   0.888886069608437   0.277772139216849   0.626447760745777   1.0000000
B2   B   0.222192223971895   0.777762778652927   0.123659346720814   1.0000000
B2   B   0.055506135152058   0.277783699950983   0.123332720637739   1.0000000
B2   B   0.388823212353255   0.277646424706548   0.122571399106390   1.0000000
B2   B   0.555549633382468   0.777827198181481   0.123332720637739   1.0000000
B2   B   0.888911515122400   0.777795568692350   0.123495585408930   1.0000000
B2   B   0.722277564798960   0.277783699950983   0.123332720637716   1.0000000
B2   B   0.055537764640754   0.944421818210929   0.626504414590727   1.0000000
B2   B   0.388884053570232   0.944421818210929   0.626504414590727   1.0000000
B2   B   0.222119330813282   0.444466029655634   0.626848583897889   1.0000000
B2   B   0.555686908626827   0.444510120980074   0.627428600893669   1.0000000
B2   B   0.722239816289678   0.944479632579332   0.626430937996035   1.0000000
B2   B   0.888911515122400   0.444449279763097   0.626504414590727   1.0000000
B2   B   0.055537764640754   0.444449279763097   0.123495585408930   1.0000000
B2   B   0.222191104504273   0.944382209008571   0.123496354500477   1.0000000
B2   B   0.555561194116309   0.944447263724892   0.123552239254194   1.0000000
B2   B   0.388823212353255   0.444510120980074   0.122571399106392   1.0000000
B2   B   0.888886069608437   0.944447263724892   0.123552239254194   1.0000000
B2   B   0.722346698842113   0.444466029655634   0.123151416101816   1.0000000
B2   B   0.222191104504273   0.611142228829381   0.626503645499405   1.0000000
B2   B   0.055506135152058   0.111055768534302   0.626667279362215   1.0000000
B2   B   0.555613000428411   0.611226000857133   0.627049311186393   1.0000000
B2   B   0.388867303677695   0.110986634491018   0.626848583897889   1.0000000
B2   B   0.888951124324758   0.611142228829381   0.626503645499405   1.0000000
B2   B   0.055570554680727   0.611141109361732   0.123659346720814   1.0000000
B2   B   0.722239816289678   0.111093517043784   0.626430937996035   1.0000000
B2   B   0.222119330813282   0.110986634491018   0.123151416101816   1.0000000
B2   B   0.388867303677695   0.611214002520168   0.123151416101816   1.0000000
B2   B   0.722346698842113   0.611214002520168   0.123151416101816   1.0000000
B2   B   0.555549633382468   0.111055768534301   0.123332720637738   1.0000000
B2   B   0.388867303677695   0.611214002520168   0.626848583897889   1.0000000
B2   B   0.888853700753997   0.111093517043784   0.123569062003891   1.0000000
B2   B   0.222192223971895   0.777762778652927   0.626340653279332   1.0000000
B2   B   0.055506135152058   0.277783699950983   0.626667279362215   1.0000000
B2   B   0.388823212353255   0.277646424706548   0.627428600893669   1.0000000
B2   B   0.555549633382468   0.777827198181481   0.626667279362215   1.0000000
B2   B   0.888911515122400   0.777795568692350   0.626504414590727   1.0000000
B2   B   0.722277564798960   0.277783699950983   0.626667279362215   1.0000000
B2   B   0.055570554680727   0.777762778652927   0.123659346720814   1.0000000
B2   B   0.388884053570232   0.777795568692350   0.123495585408930   1.0000000
B2   B   0.222107332476378   0.277720332904769   0.122950688813535   1.0000000
B2   B   0.722277564798960   0.777827198181481   0.123332720637739   1.0000000
B2   B   0.555613000428411   0.277720332904769   0.122950688813535   1.0000000
B2   B   0.888886069608437   0.277772139216849   0.123552239254194   1.0000000
B2   B   0.055537764640754   0.444449279763097   0.626504414590727   1.0000000
B2   B   0.222191104504273   0.944382209008571   0.626503645499405   1.0000000
B2   B   0.555561194116309   0.944447263724892   0.626447760745777   1.0000000
B2   B   0.388823212353255   0.444510120980074   0.627428600893669   1.0000000
B2   B   0.888886069608437   0.944447263724892   0.626447760745777   1.0000000
B2   B   0.055537764640754   0.944421818210929   0.123495585408930   1.0000000
B2   B   0.722346698842113   0.444466029655634   0.626848583897889   1.0000000
B2   B   0.388884053570232   0.944421818210929   0.123495585408930   1.0000000
B2   B   0.222119330813282   0.444466029655634   0.123151416101816   1.0000000
B2   B   0.222191104504272   0.611142228829381   0.123496354500477   1.0000000
B2   B   0.555686908626827   0.444510120980074   0.122571399106390   1.0000000
B2   B   0.722239816289678   0.944479632579332   0.123569062003891   1.0000000
B2   B   0.888911515122400   0.444449279763097   0.123495585408930   1.0000000
B2   B   0.055570554680727   0.611141109361732   0.626340653279332   1.0000000
B2   B   0.222119330813282   0.110986634491018   0.626848583897889   1.0000000
B2   B   0.722346698842113   0.611214002520168   0.626848583897889   1.0000000
B2   B   0.555549633382468   0.111055768534302   0.626667279362215   1.0000000
B2   B   0.888853700753997   0.111093517043784   0.626430937996035   1.0000000


