data_1
_audit_creation_method   'vasp2cif'
_cell_length_a    17.52789999999977
_cell_length_b    17.52789999999977
_cell_length_c    15.0
_cell_angle_alpha    90.0
_cell_angle_beta    90.0
_cell_angle_gamma    119.99999999999916

_symmetry_space_group_name_H-M    'P 1'
loop_
_atom_site_label
_atom_site_type_symbol
_atom_site_fract_x
_atom_site_fract_y
_atom_site_fract_z
_atom_site_occupancy
B2   B   0.911058269185963   0.956023320460417   0.110719939986637   1.0000000
B2   B   0.909513757161715   0.096814201582822   0.110822546702322   1.0000000
B2   B   0.908975175543276   0.238180634623095   0.110731927070544   1.0000000
B2   B   0.909065377971274   0.380241140177156   0.110646851135964   1.0000000
B2   B   0.908658780151424   0.522792360296422   0.110760626275121   1.0000000
B2   B   0.908401780638233   0.665489413206360   0.110829391214124   1.0000000
B2   B   0.904498648437598   0.807478077992221   0.110644949453363   1.0000000
B2   B   0.050891339599103   0.954174341129928   0.110696447832430   1.0000000
B2   B   0.053283059130669   0.098139385211848   0.110776017846344   1.0000000
B2   B   0.051950654245530   0.239152642440708   0.110874834030727   1.0000000
B2   B   0.050662142553704   0.381248647045010   0.110740423670523   1.0000000
B2   B   0.049511584664281   0.524456962339797   0.110710142229412   1.0000000
B2   B   0.049623637437891   0.667774020203315   0.110771247935778   1.0000000
B2   B   0.049291500442909   0.810837645638730   0.110758053789504   1.0000000
B2   B   0.193469346790209   0.955368971661905   0.110722937154811   1.0000000
B2   B   0.196845597148371   0.100335599824205   0.110765942056640   1.0000000
B2   B   0.196143445684282   0.241195152924262   0.110809877540140   1.0000000
B2   B   0.192858149338142   0.381691046808789   0.110771218390655   1.0000000
B2   B   0.189493376360988   0.524964014545193   0.110733884269233   1.0000000
B2   B   0.189901929178743   0.668771460850811   0.110813180613883   1.0000000
B2   B   0.191880137183339   0.811961015931902   0.110827151901636   1.0000000
B2   B   0.335468149196521   0.955075169226333   0.110771945204617   1.0000000
B2   B   0.337703874137716   0.099206838600911   0.110785251021542   1.0000000
B2   B   0.344786066424418   0.248322102227029   0.110763995366953   1.0000000
B2   B   0.338215865932056   0.383642406883620   0.110674666746291   1.0000000
B2   B   0.328015709273133   0.525260846438725   0.110743089566352   1.0000000
B2   B   0.328790514453847   0.669561413483280   0.110685668107355   1.0000000
B2   B   0.334045130334653   0.812318696800583   0.110864718229623   1.0000000
B2   B   0.477736122761366   0.953540851568914   0.110727025749866   1.0000000
B2   B   0.479159343421947   0.095705197045550   0.110764488559581   1.0000000
B2   B   0.481691679040073   0.238869814306692   0.110926955597633   1.0000000
B2   B   0.502281136185745   0.397212123728637   0.110581643542311   1.0000000
B2   B   0.464764962179270   0.666707695222504   0.110863282025592   1.0000000
B2   B   0.476576769657926   0.811149687949405   0.110836805708893   1.0000000
B2   B   0.621076365840799   0.956045730476587   0.110775708522336   1.0000000
B2   B   0.621894335344198   0.095105311213974   0.110596412335047   1.0000000
B2   B   0.623143303452886   0.234388432056898   0.110783404777544   1.0000000
B2   B   0.625831578049714   0.372298911048562   0.111103301063797   1.0000000
B2   B   0.609615033394003   0.493601103296186   0.110378484626898   1.0000000
B2   B   0.621141746075430   0.818412418277807   0.110804778096485   1.0000000
B2   B   0.766173468093600   0.955619677422817   0.110778312710095   1.0000000
B2   B   0.765653479636886   0.096028651442049   0.110679994617059   1.0000000
B2   B   0.766167684843767   0.236764816830557   0.110600378997410   1.0000000
B2   B   0.767457285989130   0.377756455883313   0.110796236803710   1.0000000
B2   B   0.766100038467003   0.517971759395428   0.110966319721520   1.0000000
B2   B   0.762536737108909   0.655260497449995   0.110367700707129   1.0000000
B2   B   0.769789724678394   0.816519442115437   0.110596946457071   1.0000000
Sb2   Sb   0.616393948811112   0.660265181756780   0.110460632554537   1.0000000
N2   N   0.954912467007566   0.904791544483331   0.110664211509097   1.0000000
N2   N   0.958334908589754   0.050622165354299   0.110765141378609   1.0000000
N2   N   0.956891845165158   0.191389154728791   0.110848879167794   1.0000000
N2   N   0.956202241593008   0.332933298373265   0.110675126605371   1.0000000
N2   N   0.955579103763974   0.475374454280960   0.110668392017363   1.0000000
N2   N   0.955720319057487   0.618449386161259   0.110762834035292   1.0000000
N2   N   0.953964124106414   0.761569487222528   0.110720768855383   1.0000000
N2   N   0.097989631011850   0.906503985350473   0.110698128843929   1.0000000
N2   N   0.100381510418482   0.050406933873555   0.110710454603735   1.0000000
N2   N   0.100530129443121   0.192783472915865   0.110835530096792   1.0000000
N2   N   0.098028421658554   0.333726602010771   0.110805280162532   1.0000000
N2   N   0.095680681238637   0.476309014027162   0.110701627314611   1.0000000
N2   N   0.095873024360539   0.619881264616509   0.110751899212263   1.0000000
N2   N   0.096821721801252   0.763400096781357   0.110781580298584   1.0000000
N2   N   0.240197335696367   0.907230278683070   0.110760710083802   1.0000000
N2   N   0.242227481116284   0.050806027689794   0.110729820395466   1.0000000
N2   N   0.246407593658019   0.196463929942608   0.110794685944946   1.0000000
N2   N   0.242007545226379   0.335350555452007   0.110740201916702   1.0000000
N2   N   0.234885620284906   0.476284427749249   0.110735100366777   1.0000000
N2   N   0.235000894805373   0.620437992797368   0.110723638760725   1.0000000
N2   N   0.238747994610251   0.764225775381576   0.110868826815912   1.0000000
N2   N   0.382505830977300   0.907186570921777   0.110794307752142   1.0000000
N2   N   0.383899540811015   0.049866917052085   0.110743664465915   1.0000000
N2   N   0.386508757283482   0.194144287290299   0.110830838604259   1.0000000
N2   N   0.396060765683839   0.345552558562946   0.110587198293590   1.0000000
N2   N   0.373107789042448   0.476754028126188   0.110706078927873   1.0000000
N2   N   0.371943226312399   0.620755657104507   0.110595244179144   1.0000000
N2   N   0.380811827121403   0.764807637420753   0.110777691277909   1.0000000
N2   N   0.525411909359567   0.906466665618095   0.110768358295197   1.0000000
N2   N   0.526536529948245   0.048075118378525   0.110637497281788   1.0000000
N2   N   0.528098529288479   0.189602715941400   0.110867713928086   1.0000000
N2   N   0.531819160297724   0.331677396663237   0.110932677412940   1.0000000
N2   N   0.461562445175267   0.519455621038632   0.110599511696971   1.0000000
N2   N   0.493078240546875   0.604407019721591   0.110978200488993   1.0000000
N2   N   0.524035636313343   0.763307944396684   0.110870040933821   1.0000000
N2   N   0.670128394268627   0.912004926702413   0.110842692666394   1.0000000
N2   N   0.670280370292166   0.049673050631873   0.110632800232626   1.0000000
N2   N   0.671135510610925   0.188597145540490   0.110561010899669   1.0000000
N2   N   0.673412570359648   0.327225890567375   0.110941211844323   1.0000000
N2   N   0.673118737815488   0.464227380073404   0.111115601911609   1.0000000
N2   N   0.670366871968584   0.590332110406533   0.109561490900347   1.0000000
N2   N   0.679205054870242   0.785905068227437   0.110547692557219   1.0000000
N2   N   0.817276507081591   0.910860916664887   0.110712097247540   1.0000000
N2   N   0.814287467746194   0.049919585044087   0.110756075990606   1.0000000
N2   N   0.814065849194203   0.190349289884471   0.110625672410275   1.0000000
N2   N   0.814842012311818   0.331234963487195   0.110614403758738   1.0000000
N2   N   0.814908095795429   0.472621764960497   0.110824214708290   1.0000000
N2   N   0.815169900737919   0.614529287624820   0.110882670272096   1.0000000
N2   N   0.807501114451202   0.757219346138576   0.110492894366966   1.0000000


