data_1
_audit_creation_method   'vasp2cif'
_cell_length_a    14.93631414619966
_cell_length_b    14.936314146199727
_cell_length_c    13.341276283792837
_cell_angle_alpha    90.0
_cell_angle_beta    90.0
_cell_angle_gamma    119.99999999999984

_symmetry_space_group_name_H-M    'P 1'
loop_
_atom_site_label
_atom_site_type_symbol
_atom_site_fract_x
_atom_site_fract_y
_atom_site_fract_z
_atom_site_occupancy
C2   C   0.395783614834438   0.441379235777914   0.375000000000000   1.0000000
C2   C   0.442649517063658   0.385174740719895   0.375000000000000   1.0000000
N2   N   0.111100256200985   0.055527445524576   0.125220809985001   1.0000000
N2   N   0.611061179510305   0.555481286052788   0.126315740885365   1.0000000
N2   N   0.444425343583173   0.055513353894978   0.125278287555542   1.0000000
N2   N   0.944444693159273   0.555547039787215   0.125202898936713   1.0000000
N2   N   0.777758822185012   0.055539520223122   0.125119797430714   1.0000000
N2   N   0.111110437538790   0.722202093176371   0.624878348593563   1.0000000
N2   N   0.444430799549997   0.722186586537774   0.624711141568572   1.0000000
N2   N   0.277770630642498   0.222186655434966   0.625046665670575   1.0000000
N2   N   0.777749911579921   0.722175219379911   0.624454615005914   1.0000000
N2   N   0.611082374944084   0.222189681560994   0.624567052603015   1.0000000
N2   N   0.944437619853112   0.222218534791304   0.624837368166584   1.0000000
N2   N   0.277773918950454   0.722197190118211   0.125169335518127   1.0000000
N2   N   0.111116491898029   0.222209755399724   0.125196393590076   1.0000000
N2   N   0.444427411636409   0.222172901315358   0.125276673883579   1.0000000
N2   N   0.611081193245224   0.722175326581290   0.125520669721941   1.0000000
N2   N   0.944436755031551   0.722198725230610   0.125210639179983   1.0000000
N2   N   0.777758439533378   0.222216114695593   0.125182078842269   1.0000000
N2   N   0.111102082917573   0.888860866288629   0.624858181097645   1.0000000
N2   N   0.444428101360902   0.888856689044525   0.624852375612048   1.0000000
N2   N   0.277788542729135   0.388867228978765   0.625269715994423   1.0000000
N2   N   0.611063878514659   0.388851006466994   0.624062387704208   1.0000000
N2   N   0.777756781177476   0.888857578403431   0.624824384930313   1.0000000
N2   N   0.944442643367057   0.388891260769960   0.624843432487562   1.0000000
N2   N   0.111116998298119   0.388883214086591   0.125185255839240   1.0000000
N2   N   0.277768868560745   0.888856755212081   0.125143552944274   1.0000000
N2   N   0.611088601726529   0.888862127094165   0.125134695079831   1.0000000
N2   N   0.444422713200871   0.388799025746122   0.123576024360958   1.0000000
N2   N   0.944431969927790   0.888861676627024   0.125146282918311   1.0000000
N2   N   0.777758550186092   0.388882919625837   0.125457536801188   1.0000000
N2   N   0.277782277409163   0.555534389108109   0.624764872932730   1.0000000
N2   N   0.111100256200985   0.055527445524576   0.624779190015000   1.0000000
N2   N   0.611061179510305   0.555481286052788   0.623684259114635   1.0000000
N2   N   0.444425343583173   0.055513353894978   0.624721712444458   1.0000000
N2   N   0.944444693159273   0.555547039787215   0.624797101063287   1.0000000
N2   N   0.111115636855178   0.555546314680057   0.125167037969799   1.0000000
N2   N   0.777758822185012   0.055539520223122   0.624880202569286   1.0000000
N2   N   0.277763459106220   0.055515806915128   0.125223936892242   1.0000000
N2   N   0.444437406135260   0.555509519067289   0.125189751633547   1.0000000
N2   N   0.777755057785088   0.555526620650961   0.125747902095689   1.0000000
N2   N   0.611087039272610   0.055528089083970   0.125137329924377   1.0000000
N2   N   0.444437406135260   0.555509519067289   0.624810248366453   1.0000000
N2   N   0.944435204107675   0.055536813142393   0.125161964660651   1.0000000
N2   N   0.277773918950454   0.722197190118211   0.624830664481874   1.0000000
N2   N   0.111116491898029   0.222209755399724   0.624803606409924   1.0000000
N2   N   0.444427411636409   0.222172901315358   0.624723326116421   1.0000000
N2   N   0.611081193245224   0.722175326581290   0.624479330278059   1.0000000
N2   N   0.944436755031551   0.722198725230610   0.624789360820016   1.0000000
N2   N   0.777758439533378   0.222216114695593   0.624817921157732   1.0000000
N2   N   0.111110437538790   0.722202093176371   0.125121651406438   1.0000000
N2   N   0.444430799549997   0.722186586537774   0.125288858431429   1.0000000
N2   N   0.277770630642498   0.222186655434966   0.124953334329424   1.0000000
N2   N   0.777749911579921   0.722175219379911   0.125545384994087   1.0000000
N2   N   0.611082374944084   0.222189681560994   0.125432947396985   1.0000000
N2   N   0.944437619853112   0.222218534791304   0.125162631833416   1.0000000
N2   N   0.111116998298119   0.388883214086591   0.624814744160759   1.0000000
N2   N   0.277768868560745   0.888856755212081   0.624856447055727   1.0000000
N2   N   0.611088601726529   0.888862127094165   0.624865304920170   1.0000000
N2   N   0.444422713200871   0.388799025746122   0.626423975639042   1.0000000
N2   N   0.944431969927790   0.888861676627024   0.624853717081690   1.0000000
N2   N   0.111102082917573   0.888860866288629   0.125141818902355   1.0000000
N2   N   0.777758550186092   0.388882919625837   0.624542463198811   1.0000000
N2   N   0.444428101360902   0.888856689044525   0.125147624387953   1.0000000
N2   N   0.277788542729135   0.388867228978765   0.124730284005577   1.0000000
N2   N   0.277782277409163   0.555534389108109   0.125235127067270   1.0000000
N2   N   0.611063878514659   0.388851006466994   0.125937612295791   1.0000000
N2   N   0.777756781177476   0.888857578403431   0.125175615069687   1.0000000
N2   N   0.944442643367057   0.388891260769960   0.125156567512437   1.0000000
N2   N   0.111115636855178   0.555546314680057   0.624832962030200   1.0000000
N2   N   0.277763459106220   0.055515806915128   0.624776063107758   1.0000000
N2   N   0.777755057785088   0.555526620650961   0.624252097904310   1.0000000
N2   N   0.611087039272610   0.055528089083970   0.624862670075623   1.0000000
N2   N   0.944435204107675   0.055536813142393   0.624838035339348   1.0000000
N2   N   0.055081372513703   0.110531591630227   0.375000000000000   1.0000000
N2   N   0.557617111249506   0.611994026108341   0.375000000000000   1.0000000
N2   N   0.388553648680730   0.111301751803218   0.375000000000000   1.0000000
N2   N   0.888342427602275   0.610720960446782   0.375000000000000   1.0000000
N2   N   0.721873834741290   0.111655570554552   0.375000000000000   1.0000000
N2   N   0.055548184324161   0.777775992468384   0.875000000000000   1.0000000
N2   N   0.388890684264082   0.777777721982931   0.875000000000000   1.0000000
N2   N   0.222217739668031   0.277775056898514   0.875000000000000   1.0000000
N2   N   0.722221966656172   0.777778416941720   0.875000000000000   1.0000000
N2   N   0.555557124189024   0.277783222052399   0.875000000000000   1.0000000
N2   N   0.888888168730830   0.277777771007306   0.875000000000000   1.0000000
N2   N   0.222227500799545   0.777255140105291   0.375000000000000   1.0000000
N2   N   0.055123751617904   0.277429929985853   0.375000000000000   1.0000000
N2   N   0.391478458770868   0.279972827633544   0.375000000000000   1.0000000
N2   N   0.556134107358182   0.778238758249015   0.375000000000000   1.0000000
N2   N   0.889036521794207   0.777786468466951   0.375000000000000   1.0000000
N2   N   0.721154718455828   0.278325822632202   0.375000000000000   1.0000000
N2   N   0.055549762544488   0.944445580953922   0.875000000000000   1.0000000
N2   N   0.388892112620070   0.944449438777865   0.875000000000000   1.0000000
N2   N   0.222218299586924   0.444441962621642   0.875000000000000   1.0000000
N2   N   0.555563016346733   0.444452826115864   0.875000000000000   1.0000000
N2   N   0.722223323945974   0.944445924179919   0.875000000000000   1.0000000
N2   N   0.888886290768405   0.444442626550416   0.875000000000000   1.0000000
N2   N   0.055077425140333   0.444032359016837   0.375000000000000   1.0000000
N2   N   0.222117452267264   0.944139750686472   0.375000000000000   1.0000000
N2   N   0.555570050036411   0.944944918919835   0.375000000000000   1.0000000
N2   N   0.889054826746642   0.944675475754777   0.375000000000000   1.0000000
N2   N   0.718139254090426   0.444806043969147   0.375000000000000   1.0000000
N2   N   0.222217001406149   0.611106266159118   0.875000000000000   1.0000000
N2   N   0.055551610125434   0.111108718910446   0.875000000000000   1.0000000
N2   N   0.555557567937665   0.611107503353846   0.875000000000000   1.0000000
N2   N   0.388889411418512   0.111114775148630   0.875000000000000   1.0000000
N2   N   0.888882389889416   0.611107543706282   0.875000000000000   1.0000000
N2   N   0.055312002924940   0.610561181241546   0.375000000000000   1.0000000
N2   N   0.722221323921807   0.111110975536478   0.875000000000000   1.0000000
N2   N   0.222924684875499   0.111499516527794   0.375000000000000   1.0000000
N2   N   0.390172221857333   0.611187357883875   0.375000000000000   1.0000000
N2   N   0.722022160259247   0.610329166916314   0.375000000000000   1.0000000
N2   N   0.555165683306392   0.111956844835219   0.375000000000000   1.0000000
N2   N   0.388889493274991   0.611106472843037   0.875000000000000   1.0000000
N2   N   0.888641964952412   0.111302870602553   0.375000000000000   1.0000000
N2   N   0.222218881294032   0.777776529817594   0.875000000000000   1.0000000
N2   N   0.055553184256689   0.277775565524658   0.875000000000000   1.0000000
N2   N   0.388885791687472   0.277776673520107   0.875000000000000   1.0000000
N2   N   0.555557653261742   0.777776256977128   0.875000000000000   1.0000000
N2   N   0.888884886106031   0.777780319278871   0.875000000000000   1.0000000
N2   N   0.722222084544813   0.277779298841837   0.875000000000000   1.0000000
N2   N   0.055399341792219   0.777366955188339   0.375000000000000   1.0000000
N2   N   0.389161741771753   0.777729068043386   0.375000000000000   1.0000000
N2   N   0.221009783680110   0.275934509524409   0.375000000000000   1.0000000
N2   N   0.723167536987684   0.778677927191557   0.375000000000000   1.0000000
N2   N   0.554299143888298   0.279519409049004   0.375000000000000   1.0000000
N2   N   0.888210776280590   0.277911579329680   0.375000000000000   1.0000000
N2   N   0.055550062532432   0.444441726361707   0.875000000000000   1.0000000
N2   N   0.222218508443792   0.944445201961216   0.875000000000000   1.0000000
N2   N   0.555556295407309   0.944446649043122   0.875000000000000   1.0000000
N2   N   0.388888539335051   0.444448127386114   0.875000000000000   1.0000000
N2   N   0.888889278636784   0.944447300060681   0.875000000000000   1.0000000
N2   N   0.055787200305758   0.944489048113358   0.375000000000000   1.0000000
N2   N   0.722220523968673   0.444445633459160   0.875000000000000   1.0000000
N2   N   0.388828433117448   0.944526219879866   0.375000000000000   1.0000000
N2   N   0.222670458605746   0.443355774165087   0.375000000000000   1.0000000
N2   N   0.222617304254591   0.610325756225947   0.375000000000000   1.0000000
N2   N   0.722373022044790   0.945007895026636   0.375000000000000   1.0000000
N2   N   0.887193552550257   0.444270508130242   0.375000000000000   1.0000000
N2   N   0.055547717769494   0.611105294026589   0.875000000000000   1.0000000
N2   N   0.222215255001515   0.111108314600564   0.875000000000000   1.0000000
N2   N   0.722218473967690   0.611110655453810   0.875000000000000   1.0000000
N2   N   0.555556951043949   0.111113847094977   0.875000000000000   1.0000000
N2   N   0.888889557589441   0.111110531412258   0.875000000000000   1.0000000
B2   B   0.111140276739508   0.055595359072700   0.375000000000000   1.0000000
B2   B   0.615464431387400   0.563652295295334   0.375000000000000   1.0000000
B2   B   0.444116517782099   0.055334302473501   0.375000000000000   1.0000000
B2   B   0.944428147258562   0.555267877161887   0.375000000000000   1.0000000
B2   B   0.777694366328329   0.056151254835294   0.375000000000000   1.0000000
B2   B   0.111117240316456   0.722221485501113   0.875000000000000   1.0000000
B2   B   0.444431995550970   0.722223203035634   0.875000000000000   1.0000000
B2   B   0.277746401243004   0.222208095423962   0.875000000000000   1.0000000
B2   B   0.777795853243525   0.722255765512569   0.875000000000000   1.0000000
B2   B   0.611117231473958   0.222203559782914   0.875000000000000   1.0000000
B2   B   0.944450255400874   0.222219719279322   0.875000000000000   1.0000000
B2   B   0.277878926730129   0.721645781577188   0.375000000000000   1.0000000
B2   B   0.109594545887507   0.221012134940498   0.375000000000000   1.0000000
B2   B   0.443639895564743   0.220990301140413   0.375000000000000   1.0000000
B2   B   0.613005241302099   0.724874762881961   0.375000000000000   1.0000000
B2   B   0.944730771099420   0.722314658234425   0.375000000000000   1.0000000
B2   B   0.777366146943294   0.222501265002203   0.375000000000000   1.0000000
B2   B   0.111109834792575   0.888893721760482   0.875000000000000   1.0000000
B2   B   0.444441306372586   0.888884878247879   0.875000000000000   1.0000000
B2   B   0.277752959478404   0.388883614411442   0.875000000000000   1.0000000
B2   B   0.611110258112069   0.388881615377908   0.875000000000000   1.0000000
B2   B   0.777791559355472   0.888918844753609   0.875000000000000   1.0000000
B2   B   0.944460056555282   0.388880765436308   0.875000000000000   1.0000000
B2   B   0.110997343058137   0.388502652103442   0.375000000000000   1.0000000
B2   B   0.277624249150749   0.888412978130561   0.375000000000000   1.0000000
B2   B   0.611432946196091   0.889751470500091   0.375000000000000   1.0000000
B2   B   0.944827603831074   0.889441459770177   0.375000000000000   1.0000000
B2   B   0.776161316286182   0.388696212165676   0.375000000000000   1.0000000
B2   B   0.277758179177147   0.555547512901102   0.875000000000000   1.0000000
B2   B   0.111096838621965   0.055555065037097   0.875000000000000   1.0000000
B2   B   0.611105762407235   0.555566532056668   0.875000000000000   1.0000000
B2   B   0.444438426204610   0.055540250479676   0.875000000000000   1.0000000
B2   B   0.944465430844579   0.555553952002633   0.875000000000000   1.0000000
B2   B   0.111217146928485   0.555058118061160   0.375000000000000   1.0000000
B2   B   0.777790407807063   0.055563764687892   0.875000000000000   1.0000000
B2   B   0.277220908406901   0.054907235192354   0.375000000000000   1.0000000
B2   B   0.446618889487917   0.557620754780053   0.375000000000000   1.0000000
B2   B   0.778601256346717   0.555808319791614   0.375000000000000   1.0000000
B2   B   0.610949319642897   0.056048018648334   0.375000000000000   1.0000000
B2   B   0.444413506492518   0.555547093391970   0.875000000000000   1.0000000
B2   B   0.944127415256550   0.055653620038781   0.375000000000000   1.0000000
B2   B   0.277771029593663   0.722216634181112   0.875000000000000   1.0000000
B2   B   0.111095024411914   0.222217590612846   0.875000000000000   1.0000000
B2   B   0.444419991951151   0.222205176958627   0.875000000000000   1.0000000
B2   B   0.611109855732650   0.722242952213897   0.875000000000000   1.0000000
B2   B   0.944462713491140   0.722239758244901   0.875000000000000   1.0000000
B2   B   0.777793766804162   0.222210636894377   0.875000000000000   1.0000000
B2   B   0.111122656064340   0.721768747825879   0.375000000000000   1.0000000
B2   B   0.444824741758260   0.722598077114153   0.375000000000000   1.0000000
B2   B   0.276996965860828   0.222130009392379   0.375000000000000   1.0000000
B2   B   0.778965173297905   0.724142080408224   0.375000000000000   1.0000000
B2   B   0.610773201475415   0.222546199889940   0.375000000000000   1.0000000
B2   B   0.943975922096567   0.222297810267062   0.375000000000000   1.0000000
B2   B   0.111103111288290   0.388882789798410   0.875000000000000   1.0000000
B2   B   0.277772802246071   0.888881728212603   0.875000000000000   1.0000000
B2   B   0.611115288285913   0.888901985211450   0.875000000000000   1.0000000
B2   B   0.444407673592383   0.388881642007506   0.875000000000000   1.0000000
B2   B   0.944454974681231   0.888913757136717   0.875000000000000   1.0000000
B2   B   0.111024075063631   0.888597863696276   0.375000000000000   1.0000000
B2   B   0.777801051463478   0.388878861045833   0.875000000000000   1.0000000
B2   B   0.444461730534720   0.888951638249185   0.375000000000000   1.0000000
B2   B   0.276476594112989   0.385832270255626   0.375000000000000   1.0000000
B2   B   0.278201203953215   0.554628093868759   0.375000000000000   1.0000000
B2   B   0.608641432053451   0.387604805643341   0.375000000000000   1.0000000
B2   B   0.778478552673574   0.890235477739068   0.375000000000000   1.0000000
B2   B   0.943737683108920   0.388796079374206   0.375000000000000   1.0000000
B2   B   0.111112091750093   0.555548377311480   0.875000000000000   1.0000000
B2   B   0.277757369211755   0.055541935069075   0.875000000000000   1.0000000
B2   B   0.777800024404654   0.555566389557407   0.875000000000000   1.0000000
B2   B   0.611117633577664   0.055546948379348   0.875000000000000   1.0000000
B2   B   0.944447990281074   0.055568409871481   0.875000000000000   1.0000000
B2   B   0.055540577942276   0.111095855948649   0.124955082636608   1.0000000
B2   B   0.555427995236854   0.611113517096607   0.125084292504324   1.0000000
B2   B   0.388810889502520   0.110958009966740   0.124903629044735   1.0000000
B2   B   0.889019088207498   0.611150389898193   0.124960366164346   1.0000000
B2   B   0.722207158325459   0.111071621719808   0.124893855457495   1.0000000
B2   B   0.055626115961506   0.777781758513465   0.625110995701478   1.0000000
B2   B   0.388843180046514   0.777753155851433   0.625028459534592   1.0000000
B2   B   0.222180480117316   0.277768578655599   0.625393310966160   1.0000000
B2   B   0.722222263590204   0.777833175382490   0.625003768551443   1.0000000
B2   B   0.555483984080174   0.277617810853307   0.625065702519299   1.0000000
B2   B   0.888917449409074   0.277773604495628   0.625077373927839   1.0000000
B2   B   0.222230088454220   0.777745253241950   0.124930694546687   1.0000000
B2   B   0.055550225431493   0.277784294759810   0.124961078126328   1.0000000
B2   B   0.388818573131019   0.277733189951740   0.124031075751980   1.0000000
B2   B   0.555492509807933   0.777801153689635   0.124968746177774   1.0000000
B2   B   0.888970173344104   0.777823742102366   0.124923478059117   1.0000000
B2   B   0.722242055762759   0.277712411011287   0.124977234985550   1.0000000
B2   B   0.055572854593241   0.944427224934907   0.625076622268575   1.0000000
B2   B   0.388841060411448   0.944348851300939   0.625054797419929   1.0000000
B2   B   0.222204642167474   0.444425223944465   0.625132769101346   1.0000000
B2   B   0.555339045539276   0.444291993259614   0.625349083586715   1.0000000
B2   B   0.722200813899398   0.944458433232769   0.625117845767288   1.0000000
B2   B   0.888974873413799   0.444448965336585   0.625055112495346   1.0000000
B2   B   0.055591860393452   0.444450688403333   0.124965475303594   1.0000000
B2   B   0.222202074139179   0.944366165172481   0.124931210464340   1.0000000
B2   B   0.555508496227344   0.944403591850339   0.124891761541728   1.0000000
B2   B   0.388822292029635   0.444356664102099   0.124340326303879   1.0000000
B2   B   0.888908066357696   0.944467801992979   0.124892942045004   1.0000000
B2   B   0.722273209536988   0.444408567129894   0.125153700149743   1.0000000
B2   B   0.222219523782843   0.611103579496524   0.625005141808092   1.0000000
B2   B   0.055540577942276   0.111095855948649   0.625044917363393   1.0000000
B2   B   0.555427995236854   0.611113517096607   0.624915707495675   1.0000000
B2   B   0.388810889502520   0.110958009966740   0.625096370955265   1.0000000
B2   B   0.889019088207498   0.611150389898193   0.625039633835654   1.0000000
B2   B   0.055632437541044   0.611123744185745   0.124913210980935   1.0000000
B2   B   0.722207158325459   0.111071621719808   0.625106144542506   1.0000000
B2   B   0.222169082992167   0.111037804209044   0.124860819120088   1.0000000
B2   B   0.388816672308809   0.611093396574001   0.124949685294902   1.0000000
B2   B   0.722271558076454   0.611140117231983   0.125236327508944   1.0000000
B2   B   0.555509037268525   0.110989837459593   0.124945089275849   1.0000000
B2   B   0.388816672308809   0.611093396574001   0.625050314705098   1.0000000
B2   B   0.888887114727068   0.111112934788085   0.124929499759438   1.0000000
B2   B   0.222230088454220   0.777745253241950   0.625069305453313   1.0000000
B2   B   0.055550225431493   0.277784294759810   0.625038921873673   1.0000000
B2   B   0.388818573131019   0.277733189951740   0.625968924248019   1.0000000
B2   B   0.555492509807933   0.777801153689635   0.625031253822226   1.0000000
B2   B   0.888970173344104   0.777823742102366   0.625076521940882   1.0000000
B2   B   0.722242055762759   0.277712411011287   0.625022765014450   1.0000000
B2   B   0.055626115961506   0.777781758513465   0.124889004298522   1.0000000
B2   B   0.388843180046514   0.777753155851433   0.124971540465409   1.0000000
B2   B   0.222180480117316   0.277768578655599   0.124606689033839   1.0000000
B2   B   0.722222263590204   0.777833175382490   0.124996231448557   1.0000000
B2   B   0.555483984080174   0.277617810853307   0.124934297480701   1.0000000
B2   B   0.888917449409074   0.277773604495628   0.124922626072161   1.0000000
B2   B   0.055591860393452   0.444450688403333   0.625034524696406   1.0000000
B2   B   0.222202074139179   0.944366165172481   0.625068789535660   1.0000000
B2   B   0.555508496227344   0.944403591850339   0.625108238458273   1.0000000
B2   B   0.388822292029635   0.444356664102099   0.625659673696122   1.0000000
B2   B   0.888908066357696   0.944467801992979   0.625107057954996   1.0000000
B2   B   0.055572854593241   0.944427224934907   0.124923377731425   1.0000000
B2   B   0.722273209536988   0.444408567129894   0.624846299850257   1.0000000
B2   B   0.388841060411448   0.944348851300939   0.124945202580072   1.0000000
B2   B   0.222204642167474   0.444425223944465   0.124867230898654   1.0000000
B2   B   0.222219523782843   0.611103579496524   0.124994858191910   1.0000000
B2   B   0.555339045539276   0.444291993259614   0.124650916413287   1.0000000
B2   B   0.722200813899398   0.944458433232769   0.124882154232713   1.0000000
B2   B   0.888974873413799   0.444448965336585   0.124944887504654   1.0000000
B2   B   0.055632437541044   0.611123744185745   0.625086789019066   1.0000000
B2   B   0.222169082992167   0.111037804209044   0.625139180879912   1.0000000
B2   B   0.722271558076454   0.611140117231983   0.624763672491057   1.0000000
B2   B   0.555509037268525   0.110989837459593   0.625054910724150   1.0000000
B2   B   0.888887114727068   0.111112934788085   0.625070500240563   1.0000000


