data_1
_audit_creation_method   'vasp2cif'
_cell_length_a    17.52789999999977
_cell_length_b    17.52789999999977
_cell_length_c    15.0
_cell_angle_alpha    90.0
_cell_angle_beta    90.0
_cell_angle_gamma    119.99999999999916

_symmetry_space_group_name_H-M    'P 1'
loop_
_atom_site_label
_atom_site_type_symbol
_atom_site_fract_x
_atom_site_fract_y
_atom_site_fract_z
_atom_site_occupancy
B2   B   0.907094652218309   0.953824558437808   0.110953666962751   1.0000000
B2   B   0.903907266282955   0.094404145336303   0.111044074350063   1.0000000
B2   B   0.902939196025459   0.236859006717954   0.111039710250238   1.0000000
B2   B   0.903072214984416   0.380106391794357   0.110960268279192   1.0000000
B2   B   0.904738633284044   0.523801749683546   0.110976473839852   1.0000000
B2   B   0.908041555090353   0.667944658079599   0.110988058969575   1.0000000
B2   B   0.909279508685851   0.811999472883242   0.110891286105628   1.0000000
B2   B   0.049956432820742   0.953787078830548   0.111014286881991   1.0000000
B2   B   0.048207413578410   0.095741130218435   0.110984082200439   1.0000000
B2   B   0.045850707020718   0.236974310983403   0.110950223483380   1.0000000
B2   B   0.045113781716461   0.379672799681747   0.110979865928915   1.0000000
B2   B   0.045955436198154   0.523204851162012   0.110994529367667   1.0000000
B2   B   0.048557523445851   0.666967449581692   0.111063162307098   1.0000000
B2   B   0.050160282656893   0.810658202193855   0.111061151241400   1.0000000
B2   B   0.192111150306264   0.953132263082073   0.110977047460706   1.0000000
B2   B   0.191324356382790   0.095928009053927   0.110962203328117   1.0000000
B2   B   0.189815921099168   0.238148920089448   0.110875129053074   1.0000000
B2   B   0.187183125691755   0.379271261084436   0.110786995732628   1.0000000
B2   B   0.186813083238251   0.522678750117895   0.110875219758522   1.0000000
B2   B   0.189635529939114   0.666223416484553   0.111028233757452   1.0000000
B2   B   0.191726940299422   0.809755388008190   0.110972371611784   1.0000000
B2   B   0.334277856527471   0.952197370774148   0.111008490663911   1.0000000
B2   B   0.334149407240200   0.095848694679009   0.111039367318926   1.0000000
B2   B   0.332922178507199   0.238648666240648   0.111054424295783   1.0000000
B2   B   0.331657529213794   0.381593034574840   0.110895095497052   1.0000000
B2   B   0.326042389607654   0.521506223565577   0.110680928976149   1.0000000
B2   B   0.330785552264859   0.665176316806314   0.110962557052002   1.0000000
B2   B   0.333778504936179   0.808526649274924   0.111081097408330   1.0000000
B2   B   0.476336860403412   0.949824474355897   0.111029121463696   1.0000000
B2   B   0.476401561555628   0.094815909706665   0.110973638357975   1.0000000
B2   B   0.476224755844297   0.239450113434855   0.111153678556356   1.0000000
B2   B   0.474202880308641   0.383218312558362   0.111607236294707   1.0000000
B2   B   0.469230433656474   0.538009013483064   0.111804016859789   1.0000000
B2   B   0.469966139149786   0.652588191827372   0.111487431603004   1.0000000
B2   B   0.475868006943294   0.803542688668280   0.111259415462755   1.0000000
B2   B   0.618171664050056   0.949604499267803   0.111113843915992   1.0000000
B2   B   0.618296673032204   0.093858153677168   0.111009303242467   1.0000000
B2   B   0.618348596908537   0.238148900929537   0.110990321699424   1.0000000
B2   B   0.618583879733942   0.382627142853823   0.111206107178981   1.0000000
B2   B   0.624076232653918   0.529343776561023   0.111434260571746   1.0000000
B2   B   0.632528005031983   0.672914745669319   0.111948043201336   1.0000000
B2   B   0.618390073775176   0.805760664642136   0.111186603671672   1.0000000
B2   B   0.761546813342398   0.951093617512408   0.110982637830402   1.0000000
B2   B   0.760571462455539   0.093700041000167   0.111088497843047   1.0000000
B2   B   0.760492867737384   0.237145021868892   0.111029503620474   1.0000000
B2   B   0.760962490879303   0.380883696265945   0.110973787034201   1.0000000
B2   B   0.763547435161921   0.524947727764351   0.110898743807535   1.0000000
B2   B   0.769720423029641   0.670568839744889   0.110442345328236   1.0000000
B2   B   0.767516528956262   0.812495475521587   0.110510198718145   1.0000000
C2   C   0.523181688253622   0.486918030864286   0.112125298935990   1.0000000
N2   N   0.955203139659735   0.906639800366369   0.111041764773298   1.0000000
N2   N   0.953154246436758   0.048334856242316   0.111018906402315   1.0000000
N2   N   0.950749796800416   0.189381711898766   0.110995740776203   1.0000000
N2   N   0.950149659510444   0.332048384467826   0.110989803219345   1.0000000
N2   N   0.951062674268525   0.475433393558427   0.110925443662111   1.0000000
N2   N   0.953723332203437   0.619222552753157   0.111064496482493   1.0000000
N2   N   0.955407357239771   0.763218632206420   0.111111235268986   1.0000000
N2   N   0.097179670194498   0.905790947948274   0.110946059889964   1.0000000
N2   N   0.096382778921226   0.048589806495331   0.110949538838761   1.0000000
N2   N   0.094693087849624   0.190512860606894   0.110920165012115   1.0000000
N2   N   0.092443500116312   0.331798413308237   0.110917944532922   1.0000000
N2   N   0.092239883748104   0.474873489801068   0.110987399104854   1.0000000
N2   N   0.094681452298515   0.618555092493320   0.111029122890902   1.0000000
N2   N   0.096708396436376   0.762292651118779   0.110985489998628   1.0000000
N2   N   0.239251722646307   0.905005791610206   0.110960331867918   1.0000000
N2   N   0.239098872089990   0.048331581606301   0.111000648327563   1.0000000
N2   N   0.237900441391947   0.190888529863720   0.110916348184239   1.0000000
N2   N   0.236405124050657   0.333156165663915   0.110752143582341   1.0000000
N2   N   0.232554339801269   0.473964868549348   0.110639297638811   1.0000000
N2   N   0.235717553814243   0.617841871241444   0.110915268349569   1.0000000
N2   N   0.238505437316090   0.761496444022755   0.111008582620960   1.0000000
N2   N   0.381323740531494   0.903723122298422   0.111010167345153   1.0000000
N2   N   0.381411091900495   0.047599109757411   0.111007468012633   1.0000000
N2   N   0.381061801128888   0.191314505264711   0.111056171175979   1.0000000
N2   N   0.379436457195532   0.333890871325294   0.111139114167208   1.0000000
N2   N   0.375965065343723   0.477041004944755   0.110832490708071   1.0000000
N2   N   0.375911292054949   0.616113746544460   0.110834852331328   1.0000000
N2   N   0.380599298412672   0.759907313585114   0.111141270898223   1.0000000
N2   N   0.523122004151231   0.900360188040256   0.111130829105713   1.0000000
N2   N   0.523336073131952   0.045864675717631   0.110939549718343   1.0000000
N2   N   0.523343467182766   0.190659867998644   0.110978403537850   1.0000000
N2   N   0.522923595588469   0.335475942133857   0.111384226250535   1.0000000
N2   N   0.522310761996019   0.752056756840422   0.111442918758326   1.0000000
N2   N   0.665713439193219   0.901612017902009   0.111070186040581   1.0000000
N2   N   0.665412329843221   0.045419843142204   0.111037591663731   1.0000000
N2   N   0.665422824915818   0.189583538685411   0.110990122193450   1.0000000
N2   N   0.665617282337585   0.333913862922388   0.110996122149841   1.0000000
N2   N   0.668293336178359   0.478640868130332   0.111118536331218   1.0000000
N2   N   0.675601474729797   0.624139555246759   0.110771767661063   1.0000000
N2   N   0.672453684833671   0.764203534677363   0.110789486282933   1.0000000
N2   N   0.812187368346476   0.906370782143551   0.110745504362534   1.0000000
N2   N   0.808530728804730   0.046297227449846   0.111065219162893   1.0000000
N2   N   0.807821729751178   0.189103400269969   0.111053232823019   1.0000000
N2   N   0.807948102797253   0.332574998239253   0.110951763260470   1.0000000
N2   N   0.809675235020626   0.476317017744501   0.110945773249002   1.0000000
N2   N   0.813502139469308   0.620482586921649   0.110676923576694   1.0000000
N2   N   0.814872973358262   0.764951584837600   0.110404694206457   1.0000000


