data_1
_audit_creation_method   'vasp2cif'
_cell_length_a    17.52789999999977
_cell_length_b    17.52789999999977
_cell_length_c    15.0
_cell_angle_alpha    90.0
_cell_angle_beta    90.0
_cell_angle_gamma    119.99999999999916

_symmetry_space_group_name_H-M    'P 1'
loop_
_atom_site_label
_atom_site_type_symbol
_atom_site_fract_x
_atom_site_fract_y
_atom_site_fract_z
_atom_site_occupancy
C2   C   0.390985868543884   0.484710968283568   0.111298617198770   1.0000000
B2   B   0.906678149363771   0.951888308480505   0.110735082742277   1.0000000
B2   B   0.908066271416588   0.095420975570166   0.110782847430529   1.0000000
B2   B   0.908522369467899   0.238303249351490   0.110784862872924   1.0000000
B2   B   0.908288948272553   0.381003487171109   0.110697235300748   1.0000000
B2   B   0.906599350980590   0.523599535427260   0.110753703633565   1.0000000
B2   B   0.904903801665576   0.665821126504225   0.110819419112674   1.0000000
B2   B   0.904692917499958   0.807958798458377   0.110706087258251   1.0000000
B2   B   0.049613138534061   0.952705922406971   0.110679837091362   1.0000000
B2   B   0.051104447447467   0.096119136797651   0.110741012586899   1.0000000
B2   B   0.051927420404949   0.239156253071987   0.110907843042876   1.0000000
B2   B   0.051419007391149   0.381751371070857   0.110827316867684   1.0000000
B2   B   0.049646470647257   0.524416453396509   0.110673846563891   1.0000000
B2   B   0.048686991185881   0.667054517124802   0.110713576855361   1.0000000
B2   B   0.048707572027231   0.809680161443905   0.110725054613529   1.0000000
B2   B   0.192646104007992   0.953371560027315   0.110697028494255   1.0000000
B2   B   0.194448643164481   0.097162046845232   0.110639490898386   1.0000000
B2   B   0.195669201613905   0.240145673828111   0.110797259356030   1.0000000
B2   B   0.195626716275695   0.383117349743906   0.110983332185701   1.0000000
B2   B   0.192392666096754   0.525344805949980   0.110794840762556   1.0000000
B2   B   0.191597102752050   0.667977084990954   0.110642130179906   1.0000000
B2   B   0.191926114605478   0.810530438487268   0.110663021994706   1.0000000
B2   B   0.335548111529455   0.953553517796398   0.110739844562981   1.0000000
B2   B   0.336594247052784   0.096459361728332   0.110670533019002   1.0000000
B2   B   0.340108526989126   0.241555525572926   0.110591585685523   1.0000000
B2   B   0.340753918628589   0.382605468300258   0.111005094293351   1.0000000
B2   B   0.335261899383099   0.529471271751339   0.111063436325630   1.0000000
B2   B   0.334109727895072   0.669977829533188   0.110752298030321   1.0000000
B2   B   0.334935696535239   0.811431011314844   0.110724704493452   1.0000000
B2   B   0.478609111683576   0.953221039379166   0.110779119198366   1.0000000
B2   B   0.479205761923158   0.095569703334027   0.110758381237857   1.0000000
B2   B   0.480326182146640   0.238260765824804   0.110602917825665   1.0000000
B2   B   0.487776578659800   0.385075120132056   0.110684328989971   1.0000000
B2   B   0.475982318164042   0.669032242603904   0.110781071942932   1.0000000
B2   B   0.478056411419919   0.811079133769714   0.110762711525853   1.0000000
B2   B   0.621650386169020   0.952370798099581   0.110721947926914   1.0000000
B2   B   0.622186899125626   0.094900741820260   0.110721436017026   1.0000000
B2   B   0.622836878817206   0.237103024146841   0.110667181701869   1.0000000
B2   B   0.624064059342257   0.378657734076819   0.110565218243802   1.0000000
B2   B   0.614441823073756   0.514089010278880   0.110645283252244   1.0000000
B2   B   0.618273496131843   0.663667942762364   0.110694934188905   1.0000000
B2   B   0.620635560169055   0.809134649553365   0.110716746680211   1.0000000
B2   B   0.764301685037922   0.951903050319202   0.110727069588770   1.0000000
B2   B   0.765133064158715   0.095026034693794   0.110692428359116   1.0000000
B2   B   0.765582184705536   0.237711077864857   0.110681484390358   1.0000000
B2   B   0.765725268890995   0.380168857372079   0.110673331393129   1.0000000
B2   B   0.762910865856749   0.522120953829772   0.110748751243304   1.0000000
B2   B   0.758779638986160   0.662269188714656   0.110733559330478   1.0000000
B2   B   0.762294465116252   0.807619023131484   0.110687304457479   1.0000000
N2   N   0.953689548678802   0.903917885579300   0.110684536137958   1.0000000
N2   N   0.955374426658540   0.047629703090379   0.110746759621545   1.0000000
N2   N   0.956371492659020   0.190931124251191   0.110840439767982   1.0000000
N2   N   0.956216777996290   0.333631520032383   0.110756020533161   1.0000000
N2   N   0.954690388680214   0.476313742845126   0.110676946745606   1.0000000
N2   N   0.953383055652364   0.618909933458291   0.110777260909127   1.0000000
N2   N   0.953040550658733   0.761265017525439   0.110748879174794   1.0000000
N2   N   0.097083455233220   0.905150786756444   0.110682844786416   1.0000000
N2   N   0.098529982928784   0.048542239902868   0.110646786716576   1.0000000
N2   N   0.099827395047547   0.191848612912461   0.110814049512580   1.0000000
N2   N   0.100023455339403   0.334724437329032   0.110926497680574   1.0000000
N2   N   0.097575340895792   0.477051622092798   0.110717570474467   1.0000000
N2   N   0.096564429591113   0.619736926002144   0.110625550715108   1.0000000
N2   N   0.096540120958102   0.762403842575194   0.110680641524951   1.0000000
N2   N   0.240123455404888   0.905764733349826   0.110687036823600   1.0000000
N2   N   0.241138780934616   0.048781826427730   0.110650127671662   1.0000000
N2   N   0.243676011454386   0.193134617780018   0.110627660849204   1.0000000
N2   N   0.244874025817738   0.336144027456530   0.110933963046782   1.0000000
N2   N   0.240755753354476   0.478586537537758   0.110947371904068   1.0000000
N2   N   0.239316239654534   0.620751202675735   0.110694113312825   1.0000000
N2   N   0.239637166733102   0.763208565319032   0.110631311912386   1.0000000
N2   N   0.383238440751800   0.906227999585144   0.110749190364520   1.0000000
N2   N   0.383854679944392   0.048567791685224   0.110738908132316   1.0000000
N2   N   0.385301057457330   0.191656583630700   0.110575476861547   1.0000000
N2   N   0.390526127787767   0.337810490744646   0.110638809613816   1.0000000
N2   N   0.381818081600431   0.623310778931048   0.110817707838312   1.0000000
N2   N   0.382753733288378   0.764448797603954   0.110728150040736   1.0000000
N2   N   0.526332115567546   0.905743991617250   0.110742344162790   1.0000000
N2   N   0.526819870084125   0.048033270032759   0.110764819624873   1.0000000
N2   N   0.527570113084161   0.190487142653603   0.110670396862658   1.0000000
N2   N   0.529806597389306   0.333496571822563   0.110518150228297   1.0000000
N2   N   0.476507481000173   0.530408634733985   0.110967422539073   1.0000000
N2   N   0.521990752232277   0.619725120277680   0.110757540925841   1.0000000
N2   N   0.525583156841288   0.763369239211801   0.110721803442085   1.0000000
N2   N   0.668929434853973   0.904289775423373   0.110704071809345   1.0000000
N2   N   0.669782890001238   0.047368339008749   0.110680921020151   1.0000000
N2   N   0.670345326590037   0.189745033202035   0.110679394229596   1.0000000
N2   N   0.671178486522238   0.331681348431093   0.110584519636302   1.0000000
N2   N   0.667682252414828   0.472799974868847   0.110627779503228   1.0000000
N2   N   0.661259312921325   0.611919467778666   0.110699581771433   1.0000000
N2   N   0.666394297989736   0.759289140141126   0.110671979286111   1.0000000
N2   N   0.810968328581567   0.903416363108899   0.110705966216427   1.0000000
N2   N   0.812581878883439   0.047304859948542   0.110707686931235   1.0000000
N2   N   0.813218955420315   0.190240021238044   0.110691452750567   1.0000000
N2   N   0.813387612032134   0.332873330721571   0.110659958813394   1.0000000
N2   N   0.811561883693430   0.475369376771729   0.110721347073858   1.0000000
N2   N   0.809205632913371   0.617318004885589   0.110788909216818   1.0000000
N2   N   0.808386586775934   0.758798344014669   0.110681320543899   1.0000000


