data_1
_audit_creation_method   'vasp2cif'
_cell_length_a    14.93631414619966
_cell_length_b    14.936314146199727
_cell_length_c    13.341276283792837
_cell_angle_alpha    90.0
_cell_angle_beta    90.0
_cell_angle_gamma    119.99999999999984

_symmetry_space_group_name_H-M    'P 1'
loop_
_atom_site_label
_atom_site_type_symbol
_atom_site_fract_x
_atom_site_fract_y
_atom_site_fract_z
_atom_site_occupancy
O2   O   0.436279981874651   0.384806657603990   0.375000000000000   1.0000000
N2   N   0.111076464087667   0.055561856371866   0.124874458672799   1.0000000
N2   N   0.611147121679009   0.555694857648036   0.123971176039447   1.0000000
N2   N   0.444428445325403   0.055569859147796   0.124872429328254   1.0000000
N2   N   0.944410159919236   0.555530201620537   0.124950918624895   1.0000000
N2   N   0.777756889660578   0.055545111496957   0.124890489137902   1.0000000
N2   N   0.111074463363320   0.722203898348324   0.625097704381321   1.0000000
N2   N   0.444428445325403   0.722191919510943   0.625127570671746   1.0000000
N2   N   0.277739015529050   0.222236136751155   0.624952095839860   1.0000000
N2   N   0.777787140983435   0.722266520402111   0.625156530518250   1.0000000
N2   N   0.611129769691781   0.222202555579808   0.625218926934266   1.0000000
N2   N   0.944410228788632   0.222193446880955   0.625128589044328   1.0000000
N2   N   0.277750531867825   0.722195229922493   0.124888318608218   1.0000000
N2   N   0.111045226659342   0.222189279996335   0.124811059768159   1.0000000
N2   N   0.444417827707436   0.222231612326907   0.124981375473732   1.0000000
N2   N   0.611129769691781   0.722260547445302   0.124781073065733   1.0000000
N2   N   0.944410159919236   0.722213291632035   0.124950918624895   1.0000000
N2   N   0.777779387613668   0.222193352229208   0.124903014170369   1.0000000
N2   N   0.111075896408873   0.888889831379658   0.625103246017937   1.0000000
N2   N   0.444419489585824   0.888876411459576   0.625110336254804   1.0000000
N2   N   0.277739015529050   0.388836212111224   0.624952095839860   1.0000000
N2   N   0.611147121679009   0.388785597364301   0.626028823960552   1.0000000
N2   N   0.777779387613668   0.888919368717789   0.625096985829630   1.0000000
N2   N   0.944428740280220   0.388854527913801   0.625072288733415   1.0000000
N2   N   0.111076464087667   0.388847941049130   0.124874458672799   1.0000000
N2   N   0.277750531867825   0.888888635278660   0.124888318608218   1.0000000
N2   N   0.611092022146017   0.888884337160472   0.124942825490971   1.0000000
N2   N   0.444462171855677   0.388897752594503   0.125977256659077   1.0000000
N2   N   0.944428740280220   0.888907545699749   0.124927711266586   1.0000000
N2   N   0.777787140983435   0.388853953914654   0.124843469481750   1.0000000
N2   N   0.277746528605110   0.555510000087729   0.625097239317303   1.0000000
N2   N   0.111076464087667   0.055561856371866   0.625125541327200   1.0000000
N2   N   0.611147121679009   0.555694857648036   0.626028823960552   1.0000000
N2   N   0.444428445325403   0.055569859147796   0.625127570671746   1.0000000
N2   N   0.944410159919236   0.555530201620537   0.625049081375105   1.0000000
N2   N   0.111075896408873   0.555519398362543   0.124896753982063   1.0000000
N2   N   0.777756889660578   0.055545111496957   0.625109510862097   1.0000000
N2   N   0.277746528605110   0.055569861850715   0.124902760682697   1.0000000
N2   N   0.444417827707436   0.555519548713865   0.124981375473732   1.0000000
N2   N   0.777744484716258   0.555538909024796   0.124875903249571   1.0000000
N2   N   0.611092022146017   0.055541018318874   0.124942825490971   1.0000000
N2   N   0.444417827707436   0.555519548713865   0.625018624526268   1.0000000
N2   N   0.944410228788632   0.055550115241012   0.124871410955672   1.0000000
N2   N   0.277750531867825   0.722195229922493   0.625111681391782   1.0000000
N2   N   0.111045226659342   0.222189279996335   0.625188940231841   1.0000000
N2   N   0.444417827707436   0.222231612326907   0.625018624526268   1.0000000
N2   N   0.611129769691781   0.722260547445302   0.625218926934266   1.0000000
N2   N   0.944410159919236   0.722213291632035   0.625049081375105   1.0000000
N2   N   0.777779387613668   0.222193352229208   0.625096985829630   1.0000000
N2   N   0.111074463363320   0.722203898348324   0.124902295618679   1.0000000
N2   N   0.444428445325403   0.722191919510943   0.124872429328254   1.0000000
N2   N   0.277739015529050   0.222236136751155   0.125047904160141   1.0000000
N2   N   0.777787140983435   0.722266520402111   0.124843469481750   1.0000000
N2   N   0.611129769691781   0.222202555579808   0.124781073065733   1.0000000
N2   N   0.944410228788632   0.222193446880955   0.124871410955672   1.0000000
N2   N   0.111076464087667   0.388847941049130   0.625125541327200   1.0000000
N2   N   0.277750531867825   0.888888635278660   0.625111681391782   1.0000000
N2   N   0.611092022146017   0.888884337160472   0.625057174509029   1.0000000
N2   N   0.444462171855677   0.388897752594503   0.624022743340922   1.0000000
N2   N   0.944428740280220   0.888907545699749   0.625072288733415   1.0000000
N2   N   0.111075896408873   0.888889831379658   0.124896753982063   1.0000000
N2   N   0.777787140983435   0.388853953914654   0.625156530518250   1.0000000
N2   N   0.444419489585824   0.888876411459576   0.124889663745195   1.0000000
N2   N   0.277739015529050   0.388836212111224   0.125047904160141   1.0000000
N2   N   0.277746528605110   0.555510000087729   0.124902760682697   1.0000000
N2   N   0.611147121679009   0.388785597364301   0.123971176039447   1.0000000
N2   N   0.777779387613668   0.888919368717789   0.124903014170369   1.0000000
N2   N   0.944428740280220   0.388854527913801   0.124927711266586   1.0000000
N2   N   0.111075896408873   0.555519398362543   0.625103246017937   1.0000000
N2   N   0.277746528605110   0.055569861850715   0.625097239317303   1.0000000
N2   N   0.777744484716258   0.555538909024796   0.625124096750429   1.0000000
N2   N   0.611092022146017   0.055541018318874   0.625057174509029   1.0000000
N2   N   0.944410228788632   0.055550115241012   0.625128589044328   1.0000000
N2   N   0.051708296252356   0.108708565460166   0.375000000000000   1.0000000
N2   N   0.556232330708749   0.596831196211557   0.375000000000000   1.0000000
N2   N   0.390149736808685   0.116872444115350   0.375000000000000   1.0000000
N2   N   0.896448290442020   0.614890811887682   0.375000000000000   1.0000000
N2   N   0.720467602745444   0.111644061561401   0.375000000000000   1.0000000
N2   N   0.055560500907997   0.777779266231452   0.875000000000000   1.0000000
N2   N   0.388885650841894   0.777782252729367   0.875000000000000   1.0000000
N2   N   0.222226562892634   0.277779948112985   0.875000000000000   1.0000000
N2   N   0.722219967353224   0.777775425111492   0.875000000000000   1.0000000
N2   N   0.555544063019978   0.277760521708096   0.875000000000000   1.0000000
N2   N   0.888891390379522   0.277782489438166   0.875000000000000   1.0000000
N2   N   0.225783261045971   0.779558297189653   0.375000000000000   1.0000000
N2   N   0.051708296252356   0.276333064125525   0.375000000000000   1.0000000
N2   N   0.380467238657353   0.276492578189380   0.375000000000000   1.0000000
N2   N   0.555830221557530   0.772065141990515   0.375000000000000   1.0000000
N2   N   0.891105878111508   0.777954017028546   0.375000000000000   1.0000000
N2   N   0.721223011656466   0.280976972614542   0.375000000000000   1.0000000
N2   N   0.055558932797322   0.944442167433332   0.875000000000000   1.0000000
N2   N   0.388885650841894   0.944436731445864   0.875000000000000   1.0000000
N2   N   0.222225673313963   0.444450852356387   0.875000000000000   1.0000000
N2   N   0.555551999693367   0.444442666513348   0.875000000000000   1.0000000
N2   N   0.722216512014442   0.944441099331189   0.875000000000000   1.0000000
N2   N   0.888895097282233   0.444449231759547   0.875000000000000   1.0000000
N2   N   0.055603185539847   0.444651310183625   0.375000000000000   1.0000000
N2   N   0.224744217100691   0.946968485893858   0.375000000000000   1.0000000
N2   N   0.555852202642440   0.944592767987884   0.375000000000000   1.0000000
N2   N   0.380467238657353   0.437307993801309   0.375000000000000   1.0000000
N2   N   0.886691277999062   0.942078679400829   0.375000000000000   1.0000000
N2   N   0.727983323795229   0.450337799691499   0.375000000000000   1.0000000
N2   N   0.222221289230703   0.611116398052322   0.875000000000000   1.0000000
N2   N   0.055558520725558   0.111109022357562   0.875000000000000   1.0000000
N2   N   0.555544063019978   0.611116874645218   0.875000000000000   1.0000000
N2   N   0.388885682002653   0.111097249795746   0.875000000000000   1.0000000
N2   N   0.888899176334699   0.611116254834021   0.875000000000000   1.0000000
N2   N   0.059928653523086   0.612941572363878   0.375000000000000   1.0000000
N2   N   0.722216512014442   0.111108746016589   0.875000000000000   1.0000000
N2   N   0.220006064654224   0.110471170167603   0.375000000000000   1.0000000
N2   N   0.390149736808685   0.606610626026678   0.375000000000000   1.0000000
N2   N   0.727983323795229   0.610978857437065   0.375000000000000   1.0000000
N2   N   0.555830221557530   0.117098412900351   0.375000000000000   1.0000000
N2   N   0.388885682002653   0.611121765540249   0.875000000000000   1.0000000
N2   N   0.885774822441249   0.109554077887296   0.375000000000000   1.0000000
N2   N   0.222221509724637   0.777777421528986   0.875000000000000   1.0000000
N2   N   0.055558520725558   0.277782831701331   0.875000000000000   1.0000000
N2   N   0.388893057352553   0.277777848334548   0.875000000000000   1.0000000
N2   N   0.555548670063280   0.777781575234328   0.875000000000000   1.0000000
N2   N   0.888895097282233   0.777779198856021   0.875000000000000   1.0000000
N2   N   0.722219967353224   0.277777875575067   0.875000000000000   1.0000000
N2   N   0.059928653523086   0.780320414492542   0.375000000000000   1.0000000
N2   N   0.391076170431596   0.777107729554488   0.375000000000000   1.0000000
N2   N   0.215298029133067   0.274315681233201   0.375000000000000   1.0000000
N2   N   0.721223011656466   0.773579372375259   0.375000000000000   1.0000000
N2   N   0.556232330708749   0.292734467830528   0.375000000000000   1.0000000
N2   N   0.886691277999062   0.277945931931568   0.375000000000000   1.0000000
N2   N   0.055558932797322   0.444450098697319   0.875000000000000   1.0000000
N2   N   0.222221289230703   0.944438224511717   0.875000000000000   1.0000000
N2   N   0.555548291761651   0.944440812547490   0.875000000000000   1.0000000
N2   N   0.388893057352553   0.444448542351341   0.875000000000000   1.0000000
N2   N   0.888891390379522   0.944442234274692   0.875000000000000   1.0000000
N2   N   0.055603185539847   0.944285208689550   0.375000000000000   1.0000000
N2   N   0.722227476430015   0.444447973840987   0.875000000000000   1.0000000
N2   N   0.391076170431596   0.947301774210443   0.375000000000000   1.0000000
N2   N   0.220006064654224   0.442868227819956   0.375000000000000   1.0000000
N2   N   0.224744217100691   0.611109064540169   0.375000000000000   1.0000000
N2   N   0.720467602745444   0.942156874517378   0.375000000000000   1.0000000
N2   N   0.891105878111508   0.446485194416297   0.375000000000000   1.0000000
N2   N   0.055560500907997   0.611114568009881   0.875000000000000   1.0000000
N2   N   0.222225673313963   0.111108154290911   0.875000000000000   1.0000000
N2   N   0.722227476430015   0.611112835922362   0.875000000000000   1.0000000
N2   N   0.555548670063280   0.111100428162288   0.875000000000000   1.0000000
N2   N   0.888888663699678   0.111110998516510   0.875000000000000   1.0000000
B2   B   0.109095827528452   0.054697794324953   0.375000000000000   1.0000000
B2   B   0.616602221895528   0.534803411032489   0.375000000000000   1.0000000
B2   B   0.445255974627403   0.060046254597680   0.375000000000000   1.0000000
B2   B   0.948961354813630   0.557560051721453   0.375000000000000   1.0000000
B2   B   0.774700600483654   0.054016966908495   0.375000000000000   1.0000000
B2   B   0.111094731845515   0.722214032589422   0.875000000000000   1.0000000
B2   B   0.444451765751537   0.722204521223264   0.875000000000000   1.0000000
B2   B   0.277850617813858   0.222264175702058   0.875000000000000   1.0000000
B2   B   0.777730217148261   0.722146462284433   0.875000000000000   1.0000000
B2   B   0.611092010599737   0.222265966805382   0.875000000000000   1.0000000
B2   B   0.944440495270497   0.222234199224690   0.875000000000000   1.0000000
B2   B   0.280296678316251   0.722539711960518   0.375000000000000   1.0000000
B2   B   0.105533385641107   0.219433359487218   0.375000000000000   1.0000000
B2   B   0.445988793938601   0.230698972745310   0.375000000000000   1.0000000
B2   B   0.609628113202403   0.711066825533106   0.375000000000000   1.0000000
B2   B   0.948961354813630   0.724734636425513   0.375000000000000   1.0000000
B2   B   0.775087957228294   0.223551754336413   0.375000000000000   1.0000000
B2   B   0.111107305392973   0.888877010588399   0.875000000000000   1.0000000
B2   B   0.444441606372453   0.888887469852890   0.875000000000000   1.0000000
B2   B   0.277850617813858   0.388919775445128   0.875000000000000   1.0000000
B2   B   0.611096125699087   0.388919047530303   0.875000000000000   1.0000000
B2   B   0.777749493879168   0.888833094930850   0.875000000000000   1.0000000
B2   B   0.944421981337740   0.388908797440899   0.875000000000000   1.0000000
B2   B   0.109095827528452   0.387731366536828   0.375000000000000   1.0000000
B2   B   0.280296678316251   0.891090299689062   0.375000000000000   1.0000000
B2   B   0.609673833594867   0.885177507766757   0.375000000000000   1.0000000
B2   B   0.944244592647506   0.888060957909639   0.375000000000000   1.0000000
B2   B   0.779092847358730   0.392643091232475   0.375000000000000   1.0000000
B2   B   0.277810734690346   0.555565998161870   0.875000000000000   1.0000000
B2   B   0.111132131496431   0.055556317648781   0.875000000000000   1.0000000
B2   B   0.611096125699087   0.555510411502113   0.875000000000000   1.0000000
B2   B   0.444451765751537   0.055580577861610   0.875000000000000   1.0000000
B2   B   0.944404144773712   0.555552340394554   0.875000000000000   1.0000000
B2   B   0.113629433260759   0.556061114847748   0.375000000000000   1.0000000
B2   B   0.777758725700053   0.055546029516695   0.875000000000000   1.0000000
B2   B   0.279062099206881   0.058420275524886   0.375000000000000   1.0000000
B2   B   0.445988793938601   0.548623154526627   0.375000000000000   1.0000000
B2   B   0.786231141266613   0.559782237299974   0.375000000000000   1.0000000
B2   B   0.609673833594867   0.057829659161440   0.375000000000000   1.0000000
B2   B   0.444487455286932   0.555548172152792   0.875000000000000   1.0000000
B2   B   0.940771867134651   0.053041914730119   0.375000000000000   1.0000000
B2   B   0.277784160007400   0.722223350648744   0.875000000000000   1.0000000
B2   B   0.111146927444369   0.222240130388849   0.875000000000000   1.0000000
B2   B   0.444487455286932   0.222272616467476   0.875000000000000   1.0000000
B2   B   0.611092010599737   0.722159377127683   0.875000000000000   1.0000000
B2   B   0.944404144773712   0.722185137712493   0.875000000000000   1.0000000
B2   B   0.777749493879168   0.222249732281647   0.875000000000000   1.0000000
B2   B   0.114845898601026   0.724089615967177   0.375000000000000   1.0000000
B2   B   0.445255974627403   0.718543053363059   0.375000000000000   1.0000000
B2   B   0.271749439131226   0.220774904140972   0.375000000000000   1.0000000
B2   B   0.779092847358730   0.719783089459582   0.375000000000000   1.0000000
B2   B   0.609628113202403   0.231894621002626   0.375000000000000   1.0000000
B2   B   0.940771867134651   0.221063285737868   0.375000000000000   1.0000000
B2   B   0.111132131496431   0.388909147180979   0.875000000000000   1.0000000
B2   B   0.277784160007400   0.888894142691983   0.875000000000000   1.0000000
B2   B   0.611094148346138   0.888860396977584   0.875000000000000   1.0000000
B2   B   0.444526814831526   0.388930074082427   0.875000000000000   1.0000000
B2   B   0.944421981337740   0.888846517230170   0.875000000000000   1.0000000
B2   B   0.113629433260759   0.890901651746339   0.375000000000000   1.0000000
B2   B   0.777730217148261   0.388917088197158   0.875000000000000   1.0000000
B2   B   0.445324813730811   0.889329073532069   0.375000000000000   1.0000000
B2   B   0.271749439131226   0.384307868323583   0.375000000000000   1.0000000
B2   B   0.279062099206881   0.553975157015330   0.375000000000000   1.0000000
B2   B   0.616602221895528   0.415132144196369   0.375000000000000   1.0000000
B2   B   0.775087957228294   0.884869536225210   0.375000000000000   1.0000000
B2   B   0.944244592647506   0.389516968071195   0.375000000000000   1.0000000
B2   B   0.111107305392973   0.555563628137902   0.875000000000000   1.0000000
B2   B   0.277810734690346   0.055578069861812   0.875000000000000   1.0000000
B2   B   0.777721480045251   0.555527406689294   0.875000000000000   1.0000000
B2   B   0.611094148346138   0.055567084701883   0.875000000000000   1.0000000
B2   B   0.944440495270497   0.055539629379143   0.875000000000000   1.0000000
B2   B   0.055516765737469   0.111102564974652   0.124989412691908   1.0000000
B2   B   0.555690877061468   0.610961274257423   0.125216923551279   1.0000000
B2   B   0.388983232545821   0.111327555421988   0.125150867493520   1.0000000
B2   B   0.888619034471276   0.610976183902310   0.125319307846945   1.0000000
B2   B   0.722202293495905   0.111139877441399   0.125094449580065   1.0000000
B2   B   0.055410049702011   0.777708835895489   0.624894069549767   1.0000000
B2   B   0.388917580806418   0.777730100097384   0.624947993799785   1.0000000
B2   B   0.222267306185335   0.277800319759335   0.624907109452920   1.0000000
B2   B   0.722173110704982   0.777659897570908   0.624815371570836   1.0000000
B2   B   0.555690877061468   0.278062936137381   0.624783076448721   1.0000000
B2   B   0.888819528222749   0.277764882124322   0.624912965085192   1.0000000
B2   B   0.222176571053465   0.777754952193400   0.125041798398308   1.0000000
B2   B   0.055516765737469   0.277747534096152   0.124989412691908   1.0000000
B2   B   0.389094354491902   0.278029393848343   0.125832607338500   1.0000000
B2   B   0.555608433252295   0.777680183477614   0.125137365344054   1.0000000
B2   B   0.888723580583173   0.777666207870344   0.125229998462979   1.0000000
B2   B   0.722173110704982   0.277846546467410   0.125184628429165   1.0000000
B2   B   0.055481997035620   0.944421960793880   0.624942870547725   1.0000000
B2   B   0.388917580806418   0.944520814042370   0.624947993799785   1.0000000
B2   B   0.222265357303384   0.444390104740834   0.624938009987666   1.0000000
B2   B   0.555802526860735   0.444567930097031   0.622815004181335   1.0000000
B2   B   0.722202293495905   0.944395749387842   0.624905550419935   1.0000000
B2   B   0.888723580583173   0.444390706046164   0.624770001537020   1.0000000
B2   B   0.055481997035620   0.444393369575069   0.125057129452274   1.0000000
B2   B   0.222204293969255   0.944494841308576   0.125044585686692   1.0000000
B2   B   0.555571058054295   0.944452195693811   0.125111875234504   1.0000000
B2   B   0.389094354491902   0.444398293976895   0.125832607338500   1.0000000
B2   B   0.888819528222749   0.944387979431764   0.125087034914809   1.0000000
B2   B   0.722011670998151   0.444393515069026   0.125412843153019   1.0000000
B2   B   0.222204293969255   0.611042785994015   0.624955414313309   1.0000000
B2   B   0.055516765737469   0.111102564974652   0.625010587308092   1.0000000
B2   B   0.555690877061468   0.610961274257423   0.624783076448721   1.0000000
B2   B   0.388983232545821   0.111327555421988   0.624849132506481   1.0000000
B2   B   0.888619034471276   0.610976183902310   0.624680692153055   1.0000000
B2   B   0.055410049702011   0.611034547139856   0.125105930450233   1.0000000
B2   B   0.722202293495905   0.111139877441399   0.624905550419935   1.0000000
B2   B   0.222265357303384   0.111208585895886   0.125061990012334   1.0000000
B2   B   0.388983232545821   0.610989010457176   0.125150867493520   1.0000000
B2   B   0.722011670998151   0.610951489262462   0.125412843153019   1.0000000
B2   B   0.555608433252295   0.111261583108016   0.125137365344054   1.0000000
B2   B   0.388983232545821   0.610989010457176   0.624849132506481   1.0000000
B2   B   0.888845213207802   0.111089273270572   0.125019924526708   1.0000000
B2   B   0.222176571053465   0.777754952193400   0.624958201601692   1.0000000
B2   B   0.055516765737469   0.277747534096152   0.625010587308092   1.0000000
B2   B   0.389094354491902   0.278029393848343   0.624167392661500   1.0000000
B2   B   0.555608433252295   0.777680183477614   0.624862634655946   1.0000000
B2   B   0.888723580583173   0.777666207870344   0.624770001537020   1.0000000
B2   B   0.722173110704982   0.277846546467410   0.624815371570836   1.0000000
B2   B   0.055410049702011   0.777708835895489   0.125105930450233   1.0000000
B2   B   0.388917580806418   0.777730100097384   0.125052006200214   1.0000000
B2   B   0.222267306185335   0.277800319759335   0.125092890547080   1.0000000
B2   B   0.722173110704982   0.777659897570908   0.125184628429165   1.0000000
B2   B   0.555690877061468   0.278062936137381   0.125216923551279   1.0000000
B2   B   0.888819528222749   0.277764882124322   0.125087034914809   1.0000000
B2   B   0.055481997035620   0.444393369575069   0.624942870547725   1.0000000
B2   B   0.222204293969255   0.944494841308576   0.624955414313309   1.0000000
B2   B   0.555571058054295   0.944452195693811   0.624888124765497   1.0000000
B2   B   0.389094354491902   0.444398293976895   0.624167392661500   1.0000000
B2   B   0.888819528222749   0.944387979431764   0.624912965085192   1.0000000
B2   B   0.055481997035620   0.944421960793880   0.125057129452274   1.0000000
B2   B   0.722011670998151   0.444393515069026   0.624587156846981   1.0000000
B2   B   0.388917580806418   0.944520814042370   0.125052006200214   1.0000000
B2   B   0.222265357303384   0.444390104740834   0.125061990012334   1.0000000
B2   B   0.222204293969255   0.611042785994015   0.125044585686692   1.0000000
B2   B   0.555802526860735   0.444567930097031   0.127184995818666   1.0000000
B2   B   0.722202293495905   0.944395749387842   0.125094449580065   1.0000000
B2   B   0.888723580583173   0.444390706046164   0.125229998462979   1.0000000
B2   B   0.055410049702011   0.611034547139856   0.624894069549767   1.0000000
B2   B   0.222265357303384   0.111208585895886   0.624938009987666   1.0000000
B2   B   0.722011670998151   0.610951489262462   0.624587156846981   1.0000000
B2   B   0.555608433252295   0.111261583108016   0.624862634655946   1.0000000
B2   B   0.888845213207802   0.111089273270572   0.624980075473292   1.0000000


