data_1
_audit_creation_method   'vasp2cif'
_cell_length_a    17.52789999999977
_cell_length_b    17.52789999999977
_cell_length_c    15.0
_cell_angle_alpha    90.0
_cell_angle_beta    90.0
_cell_angle_gamma    119.99999999999916

_symmetry_space_group_name_H-M    'P 1'
loop_
_atom_site_label
_atom_site_type_symbol
_atom_site_fract_x
_atom_site_fract_y
_atom_site_fract_z
_atom_site_occupancy
B2   B   0.906622048760717   0.953717504943199   0.111551936528564   1.0000000
B2   B   0.904637083968026   0.095364937228005   0.111815793269578   1.0000000
B2   B   0.903940823458029   0.237893409307468   0.111679638958982   1.0000000
B2   B   0.904404814313551   0.380906190032199   0.111599905945838   1.0000000
B2   B   0.905880478032110   0.524120756227241   0.111285584964115   1.0000000
B2   B   0.906227780671841   0.667249107605670   0.111298441724642   1.0000000
B2   B   0.906206544277943   0.809980377610458   0.111267315702115   1.0000000
B2   B   0.048040097161042   0.951961924034961   0.111644773730134   1.0000000
B2   B   0.046284516252797   0.093379972435251   0.111551936528564   1.0000000
B2   B   0.045255468816940   0.236279618833919   0.110615292366070   1.0000000
B2   B   0.045448423168032   0.380174474025821   0.110709069535204   1.0000000
B2   B   0.046525050758575   0.523902101321546   0.111504341728256   1.0000000
B2   B   0.048119307300610   0.666899786203480   0.111663134288221   1.0000000
B2   B   0.048346422049328   0.809550118460542   0.111669739028365   1.0000000
B2   B   0.190451902735511   0.951655599146648   0.111669739028365   1.0000000
B2   B   0.190021643585545   0.093795476918061   0.111267315702115   1.0000000
B2   B   0.185204277664305   0.232297239226078   0.108715693601525   1.0000000
B2   B   0.185337399104355   0.377533004911946   0.107376741318724   1.0000000
B2   B   0.186421321495828   0.523431390019454   0.109160240760609   1.0000000
B2   B   0.190298023327330   0.666804079981766   0.111405604399586   1.0000000
B2   B   0.190620528084537   0.809381493111495   0.111708804349384   1.0000000
B2   B   0.333102234993596   0.951882713895337   0.111663134288221   1.0000000
B2   B   0.332752913591314   0.093774240524148   0.111298441724642   1.0000000
B2   B   0.332750429147453   0.236125848756245   0.110671356218433   1.0000000
B2   B   0.322127252895101   0.369454183360872   0.110341687735925   1.0000000
B2   B   0.323794432345558   0.520635959316550   0.110164803733390   1.0000000
B2   B   0.333087493361788   0.666914527835289   0.109539475156197   1.0000000
B2   B   0.333197941215147   0.809703997868645   0.111405604399586   1.0000000
B2   B   0.476099919875459   0.953476970437400   0.111504341728256   1.0000000
B2   B   0.475881264969758   0.094121543163837   0.111285584964115   1.0000000
B2   B   0.475739324477985   0.234279697246428   0.109633825840788   1.0000000
B2   B   0.477177136972394   0.374110060744442   0.113033854989354   1.0000000
B2   B   0.479366061880434   0.676207588851497   0.110164803733390   1.0000000
B2   B   0.476570631177616   0.813580699700168   0.109160240760609   1.0000000
B2   B   0.619827547170068   0.954553598027907   0.110709069535204   1.0000000
B2   B   0.619095831163790   0.095597206882417   0.111599905945838   1.0000000
B2   B   0.619281913592012   0.237128527415720   0.110609903476003   1.0000000
B2   B   0.620767442803498   0.379234578392477   0.109186834667177   1.0000000
B2   B   0.625891960451547   0.522824884224590   0.113033854989354   1.0000000
B2   B   0.630547837835110   0.677874768301976   0.110341687735925   1.0000000
B2   B   0.622469016284064   0.814664622091691   0.107376741318724   1.0000000
B2   B   0.763722402362099   0.954746552379035   0.110615292366070   1.0000000
B2   B   0.762108611888529   0.096061197737924   0.111679638958982   1.0000000
B2   B   0.761890068954088   0.238111952242015   0.111580041236145   1.0000000
B2   B   0.762873493780340   0.380720107603942   0.110609903476003   1.0000000
B2   B   0.765722323949610   0.524262696719020   0.109633825840788   1.0000000
B2   B   0.763876172439772   0.667251592049560   0.110671356218433   1.0000000
B2   B   0.767704781969883   0.814797743531649   0.108715693601525   1.0000000
N2   N   0.953274528740018   0.905046771533456   0.111544950187131   1.0000000
N2   N   0.952271466183404   0.047729935734573   0.111974328405928   1.0000000
N2   N   0.950937451230658   0.189912987374974   0.111614637828637   1.0000000
N2   N   0.950955616267414   0.332806873158582   0.111578623514816   1.0000000
N2   N   0.952033382063469   0.476009814874992   0.111669034815549   1.0000000
N2   N   0.953139413623298   0.619235513235935   0.111453364982573   1.0000000
N2   N   0.953472313350375   0.762178159467460   0.111605510002555   1.0000000
N2   N   0.095576161234511   0.904425240683452   0.111617852575179   1.0000000
N2   N   0.094954630384507   0.046726873177981   0.111544950187131   1.0000000
N2   N   0.091486740621136   0.187147514029121   0.110587153028177   1.0000000
N2   N   0.091332157779078   0.331115454821734   0.109624651093938   1.0000000
N2   N   0.092227117296076   0.475437243302494   0.110716325216671   1.0000000
N2   N   0.095075335591950   0.619082448245344   0.111650243127499   1.0000000
N2   N   0.095635313901951   0.761906078424360   0.111644385361245   1.0000000
N2   N   0.238095323493653   0.904366088016040   0.111644385361245   1.0000000
N2   N   0.237823242450567   0.046529088567588   0.111605510002555   1.0000000
N2   N   0.237063782736932   0.188510971029331   0.110346898812551   1.0000000
N2   N   0.228577381576017   0.324868205446300   0.105866050775887   1.0000000
N2   N   0.230097560963557   0.473610195533574   0.106868370851295   1.0000000
N2   N   0.237252071537547   0.618964722247149   0.110371451753714   1.0000000
N2   N   0.238049853267455   0.761951548650593   0.111719829205079   1.0000000
N2   N   0.380918953672619   0.904926066325963   0.111650243127499   1.0000000
N2   N   0.380765888682042   0.046861988294715   0.111453364982573   1.0000000
N2   N   0.380572629735724   0.188714116759236   0.110660765557981   1.0000000
N2   N   0.380963230346595   0.331809630463120   0.111697618050592   1.0000000
N2   N   0.351347048581580   0.457346914862164   0.115381096293326   1.0000000
N2   N   0.380852154461543   0.619149247456384   0.108961472314810   1.0000000
N2   N   0.381036679670856   0.762749330380373   0.110371451753707   1.0000000
N2   N   0.524564158614496   0.907774284621873   0.110716325216671   1.0000000
N2   N   0.523991587042005   0.047968019854586   0.111669034815549   1.0000000
N2   N   0.524067566408888   0.188626928151670   0.110423013762024   1.0000000
N2   N   0.524745779927230   0.328462612888387   0.108706499380808   1.0000000
N2   N   0.542654487054854   0.648654353336404   0.115381096293326   1.0000000
N2   N   0.526391206383430   0.769903840954406   0.106868370851295   1.0000000
N2   N   0.668885947095148   0.908669244138970   0.109624651093938   1.0000000
N2   N   0.667194528758458   0.049045785650541   0.111578623514816   1.0000000
N2   N   0.666920645104355   0.190393801560667   0.111402538030426   1.0000000
N2   N   0.667737833822713   0.332263568094241   0.109997270313627   1.0000000
N2   N   0.671538789028638   0.475255621989717   0.108706499380808   1.0000000
N2   N   0.668191771453905   0.619038171571404   0.111697618050592   1.0000000
N2   N   0.675133196470703   0.771424020341946   0.105866050775887   1.0000000
N2   N   0.812853887888899   0.908514661296849   0.110587153028177   1.0000000
N2   N   0.810088414542996   0.049063950687277   0.111614637828637   1.0000000
N2   N   0.809233356412882   0.190768045505145   0.111776657702059   1.0000000
N2   N   0.809607600357310   0.333080756812649   0.111402538030426   1.0000000
N2   N   0.811374473766335   0.475933835508108   0.110423013762024   1.0000000
N2   N   0.811287285158812   0.619428772182303   0.110660765557981   1.0000000
N2   N   0.811490430888625   0.762937619181102   0.110346898812551   1.0000000
O2   O   0.536653879199264   0.463347522717683   0.120754906753724   1.0000000
Se2   Se   0.467969214933277   0.532032806263693   0.124939369776762   1.0000000


