data_1
_audit_creation_method   'vasp2cif'
_cell_length_a    14.93631414619966
_cell_length_b    14.936314146199727
_cell_length_c    13.341276283792837
_cell_angle_alpha    90.0
_cell_angle_beta    90.0
_cell_angle_gamma    119.99999999999984

_symmetry_space_group_name_H-M    'P 1'
loop_
_atom_site_label
_atom_site_type_symbol
_atom_site_fract_x
_atom_site_fract_y
_atom_site_fract_z
_atom_site_occupancy
C2   C   0.603328391184949   0.383086209767984   0.375000000000000   1.0000000
C2   C   0.442445629825285   0.385619057004562   0.375000000000000   1.0000000
C2   C   0.550046912447465   0.436058755197247   0.375000000000000   1.0000000
N2   N   0.111037540648567   0.056113841655173   0.126203220837195   1.0000000
N2   N   0.611006772723784   0.556158268113714   0.121430774370449   1.0000000
N2   N   0.444399461520075   0.056161876022735   0.123983251406678   1.0000000
N2   N   0.944345321222278   0.556109050601313   0.122147810592867   1.0000000
N2   N   0.777741975024537   0.056097579371890   0.126426731196112   1.0000000
N2   N   0.111029269885796   0.722779197735317   0.624673004292870   1.0000000
N2   N   0.444388012042312   0.722771417588502   0.622477684131169   1.0000000
N2   N   0.277633394102731   0.222750812789277   0.626083015009897   1.0000000
N2   N   0.777774023354520   0.722879469812850   0.626541603057171   1.0000000
N2   N   0.611077840890037   0.222792421825812   0.629295629019956   1.0000000
N2   N   0.944414857368991   0.222722586217746   0.624439494290546   1.0000000
N2   N   0.277709679699378   0.722784685549410   0.126984718245395   1.0000000
N2   N   0.110996219502967   0.222712888633857   0.125993460250030   1.0000000
N2   N   0.444364072825441   0.222819136864884   0.121914042667466   1.0000000
N2   N   0.611076497911489   0.722802282186646   0.125596461219433   1.0000000
N2   N   0.944427999717544   0.722874151317314   0.123336019758329   1.0000000
N2   N   0.777818611821061   0.222730009179257   0.122657817363398   1.0000000
N2   N   0.111073713348525   0.889486245290679   0.624100204750096   1.0000000
N2   N   0.444398545362438   0.889483535134952   0.623147831145551   1.0000000
N2   N   0.277667734686021   0.389386166133620   0.624957122767040   1.0000000
N2   N   0.610986922733380   0.389424810379966   0.630457857032129   1.0000000
N2   N   0.777743852517263   0.889456173359254   0.623139229399772   1.0000000
N2   N   0.944441762007752   0.389397916886128   0.626862124550203   1.0000000
N2   N   0.111045896197706   0.389408485851144   0.125781200576535   1.0000000
N2   N   0.277725424169216   0.889479675348265   0.126137030460144   1.0000000
N2   N   0.611060654939418   0.889463357974924   0.127200910565263   1.0000000
N2   N   0.444291564646262   0.389406834680241   0.121768034917212   1.0000000
N2   N   0.944431360507756   0.889495873314649   0.126104637044113   1.0000000
N2   N   0.777865725658399   0.389276991411546   0.118783914586290   1.0000000
N2   N   0.277692530115345   0.556084044530620   0.623224076207398   1.0000000
N2   N   0.111037540648567   0.056113841655173   0.623796779162218   1.0000000
N2   N   0.611006772723784   0.556158268113714   0.628569225629536   1.0000000
N2   N   0.444399461520075   0.056161876022761   0.626016748593728   1.0000000
N2   N   0.944345321222278   0.556109050601313   0.627852189407384   1.0000000
N2   N   0.111014468054184   0.556100260332387   0.125330937953436   1.0000000
N2   N   0.777741975024537   0.056097579371890   0.623573268803973   1.0000000
N2   N   0.277719221271049   0.056147807587996   0.124721927737476   1.0000000
N2   N   0.444365200246448   0.556092084153415   0.124935596496046   1.0000000
N2   N   0.777810656952516   0.556422874705305   0.118994115718419   1.0000000
N2   N   0.611081209873700   0.056151007722706   0.124729568788512   1.0000000
N2   N   0.444365200246448   0.556092084153415   0.625064403503833   1.0000000
N2   N   0.944388008157530   0.056077464977691   0.127090724904311   1.0000000
N2   N   0.277709679699378   0.722784685549410   0.623015281753714   1.0000000
N2   N   0.110996219502967   0.222712888633857   0.624006539749528   1.0000000
N2   N   0.444364072825441   0.222819136864891   0.628085957332561   1.0000000
N2   N   0.611076497911489   0.722802282186646   0.624403538779338   1.0000000
N2   N   0.944427999717544   0.722874151317314   0.626663980242278   1.0000000
N2   N   0.777818611821061   0.222730009179257   0.627342182636414   1.0000000
N2   N   0.111029269885796   0.722779197735317   0.125326995707011   1.0000000
N2   N   0.444388012042312   0.722771417588502   0.127522315869385   1.0000000
N2   N   0.277633394102731   0.222750812789277   0.123916984989808   1.0000000
N2   N   0.777774023354520   0.722879469812850   0.123458396942739   1.0000000
N2   N   0.611077840890037   0.222792421825789   0.120704370979759   1.0000000
N2   N   0.944414857369045   0.222722586217746   0.125560505709705   1.0000000
N2   N   0.111045896197812   0.389408485851144   0.624218799424284   1.0000000
N2   N   0.277725424169214   0.889479675348265   0.623862969539800   1.0000000
N2   N   0.611060654939418   0.889463357974924   0.622799089434402   1.0000000
N2   N   0.444291564646251   0.389406834680241   0.628231965082905   1.0000000
N2   N   0.944431360507756   0.889495873314649   0.623895362955759   1.0000000
N2   N   0.111073713348525   0.889486245290679   0.125899795249270   1.0000000
N2   N   0.777865725658399   0.389276991411546   0.631216085414385   1.0000000
N2   N   0.444398545362438   0.889483535134951   0.126852168853984   1.0000000
N2   N   0.277667734686021   0.389386166133621   0.125042877233342   1.0000000
N2   N   0.277692530115345   0.556084044530620   0.126775923792915   1.0000000
N2   N   0.610986922733380   0.389424810379966   0.119542142967890   1.0000000
N2   N   0.777743852517263   0.889456173359254   0.126860770599686   1.0000000
N2   N   0.944441762007764   0.389397916886128   0.123137875449085   1.0000000
N2   N   0.111014468054184   0.556100260332387   0.624669062047094   1.0000000
N2   N   0.277719221271049   0.056147807587996   0.625278072262450   1.0000000
N2   N   0.777810656952507   0.556422874705305   0.631005884281685   1.0000000
N2   N   0.611081209873700   0.056151007722706   0.625270431211631   1.0000000
N2   N   0.944388008157530   0.056077464977686   0.622909275095382   1.0000000
N2   N   0.053484661592184   0.109398476750673   0.375000000000000   1.0000000
N2   N   0.556777457211775   0.609081864080876   0.375000000000000   1.0000000
N2   N   0.387461317461787   0.110432364501467   0.375000000000000   1.0000000
N2   N   0.891592200647962   0.608751769305740   0.375000000000000   1.0000000
N2   N   0.722161086648038   0.115069191199999   0.375000000000000   1.0000000
N2   N   0.055813292886512   0.777508566299194   0.875000000000000   1.0000000
N2   N   0.389115587404895   0.777515554404241   0.875000000000000   1.0000000
N2   N   0.222475625872425   0.277523905628407   0.875000000000000   1.0000000
N2   N   0.722458135772131   0.777521773787597   0.875000000000000   1.0000000
N2   N   0.555799266613866   0.277512117114002   0.875000000000000   1.0000000
N2   N   0.889148485351452   0.277534512773091   0.875000000000000   1.0000000
N2   N   0.225182217609782   0.778525558249367   0.375000000000000   1.0000000
N2   N   0.053876257493068   0.277326099685950   0.375000000000000   1.0000000
N2   N   0.385239302480816   0.276684725833447   0.375000000000000   1.0000000
N2   N   0.556965721031960   0.776935953627781   0.375000000000000   1.0000000
N2   N   0.888415180885378   0.774060684260482   0.375000000000000   1.0000000
N2   N   0.721627088195785   0.288651931105190   0.375000000000000   1.0000000
N2   N   0.055799801292093   0.944162809242165   0.875000000000000   1.0000000
N2   N   0.389114996089577   0.944152889276173   0.875000000000000   1.0000000
N2   N   0.222483551556242   0.444200578640589   0.875000000000000   1.0000000
N2   N   0.555797612768196   0.444218198476933   0.875000000000000   1.0000000
N2   N   0.722465874826788   0.944170313683317   0.875000000000000   1.0000000
N2   N   0.889172011977673   0.444218914833906   0.875000000000000   1.0000000
N2   N   0.056458554212313   0.445156549310203   0.375000000000000   1.0000000
N2   N   0.222164135218334   0.943378081005772   0.375000000000000   1.0000000
N2   N   0.556807803080954   0.945157405708832   0.375000000000000   1.0000000
N2   N   0.388524080164319   0.440519398645329   0.375000000000000   1.0000000
N2   N   0.887807980374414   0.942226097913612   0.375000000000000   1.0000000
N2   N   0.222473481201897   0.610858459974026   0.875000000000000   1.0000000
N2   N   0.055804564423383   0.110834267649663   0.875000000000000   1.0000000
N2   N   0.555779910128988   0.610901899347607   0.875000000000000   1.0000000
N2   N   0.389137436899225   0.110832687013966   0.875000000000000   1.0000000
N2   N   0.889164015731543   0.610867258653111   0.875000000000000   1.0000000
N2   N   0.060760262991589   0.612882550541473   0.375000000000000   1.0000000
N2   N   0.722458003300705   0.110828502072356   0.875000000000000   1.0000000
N2   N   0.220267840630774   0.109173493512596   0.375000000000000   1.0000000
N2   N   0.390495776963960   0.609281552650807   0.375000000000000   1.0000000
N2   N   0.723073216276339   0.599678465875232   0.375000000000000   1.0000000
N2   N   0.555902876608293   0.112696262722436   0.375000000000000   1.0000000
N2   N   0.389119380028648   0.610875363124313   0.875000000000000   1.0000000
N2   N   0.887605920880564   0.111061140205365   0.375000000000000   1.0000000
N2   N   0.222471404936617   0.777511556255343   0.875000000000000   1.0000000
N2   N   0.055815993739038   0.277528502034657   0.875000000000000   1.0000000
N2   N   0.389143713847288   0.277523058678919   0.875000000000000   1.0000000
N2   N   0.555777469760309   0.777529501363568   0.875000000000000   1.0000000
N2   N   0.889133328453040   0.777509138428842   0.875000000000000   1.0000000
N2   N   0.722448308701498   0.277495020116148   0.875000000000000   1.0000000
N2   N   0.056704025967397   0.776527770576250   0.375000000000000   1.0000000
N2   N   0.391162547039694   0.777669224513269   0.375000000000000   1.0000000
N2   N   0.219505750742357   0.275882940888461   0.375000000000000   1.0000000
N2   N   0.722633092660506   0.772983374986891   0.375000000000000   1.0000000
N2   N   0.552148384434306   0.276183567657007   0.375000000000000   1.0000000
N2   N   0.887637582781662   0.279705751760303   0.375000000000000   1.0000000
N2   N   0.055827115927416   0.444203486115458   0.875000000000000   1.0000000
N2   N   0.222466733418607   0.944167091780115   0.875000000000000   1.0000000
N2   N   0.555777300990968   0.944155564388715   0.875000000000000   1.0000000
N2   N   0.389143022279755   0.444220566885464   0.875000000000000   1.0000000
N2   N   0.889138411630757   0.944167108283137   0.875000000000000   1.0000000
N2   N   0.054326327785218   0.942203492687001   0.375000000000000   1.0000000
N2   N   0.722482561215535   0.444202378769719   0.875000000000000   1.0000000
N2   N   0.390314773116060   0.945019371373987   0.375000000000000   1.0000000
N2   N   0.222747100862419   0.443728717260642   0.375000000000000   1.0000000
N2   N   0.225218107480791   0.611355499804750   0.375000000000000   1.0000000
N2   N   0.722459622263549   0.943994928733012   0.375000000000000   1.0000000
N2   N   0.890723359552956   0.448157258468842   0.375000000000000   1.0000000
N2   N   0.055832456787296   0.610863476478663   0.875000000000000   1.0000000
N2   N   0.222469815501204   0.110836408358119   0.875000000000000   1.0000000
N2   N   0.722445417367963   0.610879442468776   0.875000000000000   1.0000000
N2   N   0.555775944934533   0.110798574482797   0.875000000000000   1.0000000
N2   N   0.889142070620145   0.110840286612727   0.875000000000000   1.0000000
B2   B   0.109103458422867   0.053410082793055   0.375000000000000   1.0000000
B2   B   0.612934810597068   0.552160973175678   0.375000000000000   1.0000000
B2   B   0.445248624997160   0.056647724731901   0.375000000000000   1.0000000
B2   B   0.949589110092032   0.557439805811572   0.375000000000000   1.0000000
B2   B   0.776574526923320   0.056953065418336   0.375000000000000   1.0000000
B2   B   0.111294072384427   0.721886517306004   0.875000000000000   1.0000000
B2   B   0.444689561975263   0.721951160603729   0.875000000000000   1.0000000
B2   B   0.278118935693836   0.222014834001059   0.875000000000000   1.0000000
B2   B   0.777962299162314   0.721833490115876   0.875000000000000   1.0000000
B2   B   0.611402737671660   0.222052856007062   0.875000000000000   1.0000000
B2   B   0.944659785317003   0.222013762876771   0.875000000000000   1.0000000
B2   B   0.280171466557530   0.722362829687751   0.375000000000000   1.0000000
B2   B   0.108777594496891   0.220985402150978   0.375000000000000   1.0000000
B2   B   0.441886386775353   0.221639011494399   0.375000000000000   1.0000000
B2   B   0.611775508644294   0.719586218023772   0.375000000000000   1.0000000
B2   B   0.944037902693111   0.717760253005834   0.375000000000000   1.0000000
B2   B   0.775794063890160   0.229948652711902   0.375000000000000   1.0000000
B2   B   0.111325807960187   0.888550695799892   0.875000000000000   1.0000000
B2   B   0.444688113482719   0.888627247612420   0.875000000000000   1.0000000
B2   B   0.278101261183690   0.388678141849870   0.875000000000000   1.0000000
B2   B   0.611466320157683   0.388724268674943   0.875000000000000   1.0000000
B2   B   0.777990514336286   0.888556965324141   0.875000000000000   1.0000000
B2   B   0.944620304108264   0.388687073708483   0.875000000000000   1.0000000
B2   B   0.110885292401413   0.388890841708954   0.375000000000000   1.0000000
B2   B   0.279321051942681   0.889149869940935   0.375000000000000   1.0000000
B2   B   0.611659526398579   0.888406563635554   0.375000000000000   1.0000000
B2   B   0.942538936983467   0.884972070995934   0.375000000000000   1.0000000
B2   B   0.775670637427855   0.411014116287240   0.375000000000000   1.0000000
B2   B   0.278032728781358   0.555310015092180   0.875000000000000   1.0000000
B2   B   0.111366850081108   0.055270108947393   0.875000000000000   1.0000000
B2   B   0.611386208703526   0.555278446015420   0.875000000000000   1.0000000
B2   B   0.444739465486215   0.055332761412184   0.875000000000000   1.0000000
B2   B   0.944594797656197   0.555257533855521   0.875000000000000   1.0000000
B2   B   0.113930604111086   0.556093321613813   0.375000000000000   1.0000000
B2   B   0.778002369369800   0.055314015735000   0.875000000000000   1.0000000
B2   B   0.276582255965060   0.054280011227904   0.375000000000000   1.0000000
B2   B   0.446042793079347   0.552619988332005   0.375000000000000   1.0000000
B2   B   0.777122713860972   0.532615183504287   0.375000000000000   1.0000000
B2   B   0.611446034111678   0.057416882550828   0.375000000000000   1.0000000
B2   B   0.444749774914996   0.555319749576915   0.875000000000000   1.0000000
B2   B   0.942293134293717   0.053958899319133   0.375000000000000   1.0000000
B2   B   0.277998913064071   0.721940067359045   0.875000000000000   1.0000000
B2   B   0.111379422037480   0.221990766641417   0.875000000000000   1.0000000
B2   B   0.444820097051377   0.222060685716882   0.875000000000000   1.0000000
B2   B   0.611337278355730   0.721907498803233   0.875000000000000   1.0000000
B2   B   0.944601379438906   0.721827750167131   0.875000000000000   1.0000000
B2   B   0.777990061886484   0.222044901240760   0.875000000000000   1.0000000
B2   B   0.113929267323985   0.722772906664599   0.375000000000000   1.0000000
B2   B   0.446050238152509   0.720835479307626   0.375000000000000   1.0000000
B2   B   0.275332928933826   0.220571452360380   0.375000000000000   1.0000000
B2   B   0.776725520301593   0.712174158479190   0.375000000000000   1.0000000
B2   B   0.611868066576882   0.225661690608715   0.375000000000000   1.0000000
B2   B   0.942107453451203   0.223069889968255   0.375000000000000   1.0000000
B2   B   0.111349853486007   0.388670134043325   0.875000000000000   1.0000000
B2   B   0.278012816503489   0.888600381345369   0.875000000000000   1.0000000
B2   B   0.611337937450792   0.888607866434171   0.875000000000000   1.0000000
B2   B   0.444827482429998   0.388707893067984   0.875000000000000   1.0000000
B2   B   0.944642568788337   0.888519298239691   0.875000000000000   1.0000000
B2   B   0.110602234357337   0.886911510434701   0.375000000000000   1.0000000
B2   B   0.777982391015321   0.388698806702042   0.875000000000000   1.0000000
B2   B   0.445992322780348   0.889206175611757   0.375000000000000   1.0000000
B2   B   0.277566745279958   0.387255611054230   0.375000000000000   1.0000000
B2   B   0.279611521279751   0.554885786015537   0.375000000000000   1.0000000
B2   B   0.776764926371869   0.885308779663131   0.375000000000000   1.0000000
B2   B   0.943473256963949   0.391671913665516   0.375000000000000   1.0000000
B2   B   0.111306368050324   0.555298572704999   0.875000000000000   1.0000000
B2   B   0.278074191699979   0.055311809423135   0.875000000000000   1.0000000
B2   B   0.777968372119372   0.555219714718665   0.875000000000000   1.0000000
B2   B   0.611351974554198   0.055330536608570   0.875000000000000   1.0000000
B2   B   0.944672795304345   0.055274478984160   0.875000000000000   1.0000000
B2   B   0.055481644211076   0.111661079723077   0.126816564430026   1.0000000
B2   B   0.555660815201804   0.611448448364990   0.124579434798920   1.0000000
B2   B   0.388992749344121   0.111948805212562   0.123801109619071   1.0000000
B2   B   0.888420914883955   0.611428140845516   0.122531869121160   1.0000000
B2   B   0.722285656297531   0.111895283672789   0.125085830797677   1.0000000
B2   B   0.055275253859888   0.778197514316302   0.624593586155149   1.0000000
B2   B   0.388839852722459   0.778326759790016   0.622346603122753   1.0000000
B2   B   0.222166321106162   0.278320903507185   0.624705825815556   1.0000000
B2   B   0.722224820951131   0.778189726542702   0.624156157046662   1.0000000
B2   B   0.555840879702216   0.278816573577529   0.628594015261915   1.0000000
B2   B   0.888791599042029   0.278404922851937   0.625684206373039   1.0000000
B2   B   0.222008485649305   0.778271403789509   0.126651289275974   1.0000000
B2   B   0.055440520800764   0.278306019641120   0.126199628733804   1.0000000
B2   B   0.388994866685291   0.278529106265947   0.123021369804441   1.0000000
B2   B   0.555596818047650   0.778266659604426   0.127316421468200   1.0000000
B2   B   0.888737007889280   0.778167963078407   0.124850203778336   1.0000000
B2   B   0.722396419922970   0.278736567661224   0.121492370115332   1.0000000
B2   B   0.055446244901402   0.944952311675690   0.623499635650052   1.0000000
B2   B   0.388900176398875   0.945159705141052   0.623943281784107   1.0000000
B2   B   0.222133401498406   0.444925750400642   0.623643246823053   1.0000000
B2   B   0.555741669991288   0.444900026630976   0.627677422784250   1.0000000
B2   B   0.722226002421475   0.945021746983660   0.622663472125487   1.0000000
B2   B   0.888471137276456   0.444866457335922   0.627584572864561   1.0000000
B2   B   0.055287310783184   0.444919062240788   0.125318887352844   1.0000000
B2   B   0.222140152286308   0.945048854413067   0.125976799612676   1.0000000
B2   B   0.555608695822062   0.945159754122521   0.126754292807185   1.0000000
B2   B   0.388983497306093   0.444909229378331   0.124476231978859   1.0000000
B2   B   0.888827866534638   0.944935169674117   0.127148882314516   1.0000000
B2   B   0.722343095465633   0.445094921028754   0.123843335356972   1.0000000
B2   B   0.222002166999676   0.611559979924690   0.623084479824680   1.0000000
B2   B   0.055481644211075   0.111661079723076   0.623183435569699   1.0000000
B2   B   0.555660815201804   0.611448448364990   0.625420565201988   1.0000000
B2   B   0.388992749344121   0.111948805212562   0.626198890380982   1.0000000
B2   B   0.888420914883955   0.611428140845516   0.627468130878502   1.0000000
B2   B   0.055085462610846   0.611467619045638   0.124930248849109   1.0000000
B2   B   0.722285656297531   0.111895283672789   0.624914169201693   1.0000000
B2   B   0.222193823321054   0.111751414169237   0.125260246409042   1.0000000
B2   B   0.388880032632035   0.611535707443916   0.126982933654870   1.0000000
B2   B   0.722247114900152   0.611417114426839   0.122193586427523   1.0000000
B2   B   0.555729912186903   0.112082872047856   0.123539282091156   1.0000000
B2   B   0.388880032632035   0.611535707443916   0.623017066344588   1.0000000
B2   B   0.888849807957429   0.111711318236444   0.126804201753981   1.0000000
B2   B   0.222008485649281   0.778271403789509   0.623348710724227   1.0000000
B2   B   0.055440520800764   0.278306019641120   0.623800371266498   1.0000000
B2   B   0.388994866685291   0.278529106265947   0.626978630195428   1.0000000
B2   B   0.555596818047650   0.778266659604426   0.622683578532133   1.0000000
B2   B   0.888737007889280   0.778167963078407   0.625149796221913   1.0000000
B2   B   0.722396419922970   0.278736567661224   0.628507629883528   1.0000000
B2   B   0.055275253859896   0.778197514316302   0.125406413844714   1.0000000
B2   B   0.388839852722459   0.778326759790016   0.127653396876950   1.0000000
B2   B   0.222166321106162   0.278320903507185   0.125294174184622   1.0000000
B2   B   0.722224820951131   0.778189726542702   0.125843842953867   1.0000000
B2   B   0.555840879702216   0.278816573577529   0.121405984737690   1.0000000
B2   B   0.888791599042029   0.278404922851937   0.124315793627055   1.0000000
B2   B   0.055287310783184   0.444919062240788   0.624681112647538   1.0000000
B2   B   0.222140152286308   0.945048854413067   0.624023200387197   1.0000000
B2   B   0.555608695822062   0.945159754122521   0.623245707192555   1.0000000
B2   B   0.388983497306093   0.444909229378198   0.625523768021167   1.0000000
B2   B   0.888827866534638   0.944935169674117   0.622851117686162   1.0000000
B2   B   0.055446244901402   0.944952311675690   0.126500364350082   1.0000000
B2   B   0.722343095465633   0.445094921028754   0.626156664643428   1.0000000
B2   B   0.388900176398877   0.945159705141052   0.126056718215515   1.0000000
B2   B   0.222133401498406   0.444925750400642   0.126356753176449   1.0000000
B2   B   0.222002166999676   0.611559979924690   0.126915520174203   1.0000000
B2   B   0.555741669991288   0.444900026630975   0.122322577215309   1.0000000
B2   B   0.722226002421475   0.945021746983660   0.127336527874200   1.0000000
B2   B   0.888471137276456   0.444866457335922   0.122415427135293   1.0000000
B2   B   0.055085462610846   0.611467619045638   0.625069751150270   1.0000000
B2   B   0.222193823321054   0.111751414169237   0.624739753589700   1.0000000
B2   B   0.722247114900152   0.611417114426839   0.627806413573241   1.0000000
B2   B   0.555729912186903   0.112082872047857   0.626460717908150   1.0000000
B2   B   0.888849807957429   0.111711318236434   0.623195798245758   1.0000000


