data_1
_audit_creation_method   'vasp2cif'
_cell_length_a    14.93631414619966
_cell_length_b    14.936314146199727
_cell_length_c    13.341276283792837
_cell_angle_alpha    90.0
_cell_angle_beta    90.0
_cell_angle_gamma    119.99999999999984

_symmetry_space_group_name_H-M    'P 1'
loop_
_atom_site_label
_atom_site_type_symbol
_atom_site_fract_x
_atom_site_fract_y
_atom_site_fract_z
_atom_site_occupancy
C2   C   0.442103544455945   0.385066091692307   0.375000000000000   1.0000000
C2   C   0.545191767793610   0.435218617366647   0.375000000000000   1.0000000
N2   N   0.111016972502000   0.055514888517319   0.124882275464323   1.0000000
N2   N   0.611119011884408   0.555549957289956   0.124929158472696   1.0000000
N2   N   0.444432047867620   0.055584410245631   0.125002304661610   1.0000000
N2   N   0.944447076533239   0.555563754138419   0.124932838433860   1.0000000
N2   N   0.777728949555182   0.055533925243646   0.124913469264935   1.0000000
N2   N   0.111106087571640   0.722233195435854   0.625093739809915   1.0000000
N2   N   0.444438701643386   0.722202744965619   0.625107452428320   1.0000000
N2   N   0.277671077701685   0.222173614387157   0.625136934607803   1.0000000
N2   N   0.777746322521646   0.722190232300142   0.625047426769442   1.0000000
N2   N   0.611114877080998   0.222245252458559   0.624669932062864   1.0000000
N2   N   0.944375570708786   0.222194050972344   0.625081370239682   1.0000000
N2   N   0.277778113634600   0.722226042797755   0.124887152239109   1.0000000
N2   N   0.111007423774090   0.222162971012829   0.124858890113691   1.0000000
N2   N   0.444370327515399   0.222214139365433   0.125111020677438   1.0000000
N2   N   0.611092160865522   0.722188704657389   0.124907757259935   1.0000000
N2   N   0.944424057023030   0.722215284513825   0.124895500494873   1.0000000
N2   N   0.777739699567202   0.222225173518731   0.125002894654774   1.0000000
N2   N   0.111072839687895   0.888890854935153   0.625127091125469   1.0000000
N2   N   0.444441409161369   0.888905496899227   0.625125529626373   1.0000000
N2   N   0.277714635795611   0.388826011490129   0.625109701298206   1.0000000
N2   N   0.611136779152349   0.388924753705807   0.625320879181226   1.0000000
N2   N   0.777732005588206   0.888858331167110   0.625086032625207   1.0000000
N2   N   0.944419119564609   0.388886139163346   0.625113678361047   1.0000000
N2   N   0.111067946342808   0.388855797952282   0.124908891804398   1.0000000
N2   N   0.277771499808904   0.888915090461068   0.124873577506840   1.0000000
N2   N   0.611087661930866   0.888876289131680   0.124885935913770   1.0000000
N2   N   0.444335978498342   0.388818756281950   0.124458062146676   1.0000000
N2   N   0.944383790088205   0.888856524165495   0.124923819580852   1.0000000
N2   N   0.777778239906115   0.388925548519469   0.124827705158638   1.0000000
N2   N   0.277767697998989   0.555525268109660   0.625099292003279   1.0000000
N2   N   0.111016972502000   0.055514888517319   0.625117724535677   1.0000000
N2   N   0.611119011884408   0.555549957289956   0.625070841527303   1.0000000
N2   N   0.444432047867620   0.055584410245631   0.624997695338389   1.0000000
N2   N   0.944447076533239   0.555563754138419   0.625067161566141   1.0000000
N2   N   0.111103254562854   0.555547985493944   0.124905963098647   1.0000000
N2   N   0.777728949555182   0.055533925243646   0.625086530735066   1.0000000
N2   N   0.277722629425985   0.055559186142166   0.124877407440069   1.0000000
N2   N   0.444432635610851   0.555510251318377   0.124893161855884   1.0000000
N2   N   0.777778959265231   0.555537114492143   0.124828685669598   1.0000000
N2   N   0.611094312251402   0.055565703140264   0.124930993939825   1.0000000
N2   N   0.444432635610851   0.555510251318377   0.625106838144118   1.0000000
N2   N   0.944359781999873   0.055510152689629   0.124898616301559   1.0000000
N2   N   0.277778113634600   0.722226042797755   0.625112847760891   1.0000000
N2   N   0.111007423774090   0.222162971012829   0.625141109886309   1.0000000
N2   N   0.444370327515399   0.222214139365433   0.624888979322562   1.0000000
N2   N   0.611092160865522   0.722188704657389   0.625092242740064   1.0000000
N2   N   0.944424057023030   0.722215284513825   0.625104499505127   1.0000000
N2   N   0.777739699567202   0.222225173518731   0.624997105345226   1.0000000
N2   N   0.111106087571640   0.722233195435854   0.124906260190085   1.0000000
N2   N   0.444438701643386   0.722202744965619   0.124892547571679   1.0000000
N2   N   0.277671077701685   0.222173614387157   0.124863065392197   1.0000000
N2   N   0.777746322521646   0.722190232300142   0.124952573230558   1.0000000
N2   N   0.611114877080998   0.222245252458559   0.125330067937136   1.0000000
N2   N   0.944375570708786   0.222194050972344   0.124918629760318   1.0000000
N2   N   0.111067946342808   0.388855797952282   0.625091108195602   1.0000000
N2   N   0.277771499808904   0.888915090461068   0.625126422493160   1.0000000
N2   N   0.611087661930866   0.888876289131680   0.625114064086230   1.0000000
N2   N   0.444335978498342   0.388818756281950   0.625541937853324   1.0000000
N2   N   0.944383790088205   0.888856524165495   0.625076180419148   1.0000000
N2   N   0.111072839687895   0.888890854935153   0.124872908874531   1.0000000
N2   N   0.777778239906115   0.388925548519469   0.625172294841362   1.0000000
N2   N   0.444441409161369   0.888905496899227   0.124874470373627   1.0000000
N2   N   0.277714635795611   0.388826011490129   0.124890298701793   1.0000000
N2   N   0.277767697998989   0.555525268109660   0.124900707996720   1.0000000
N2   N   0.611136779152349   0.388924753705807   0.124679120818773   1.0000000
N2   N   0.777732005588206   0.888858331167110   0.124913967374793   1.0000000
N2   N   0.944419119564609   0.388886139163346   0.124886321638953   1.0000000
N2   N   0.111103254562854   0.555547985493944   0.625094036901354   1.0000000
N2   N   0.277722629425985   0.055559186142166   0.625122592559931   1.0000000
N2   N   0.777778959265231   0.555537114492143   0.625171314330402   1.0000000
N2   N   0.611094312251402   0.055565703140264   0.625069006060176   1.0000000
N2   N   0.944359781999873   0.055510152689629   0.625101383698440   1.0000000
N2   N   0.053258775268907   0.109968533269003   0.375000000000000   1.0000000
N2   N   0.557222718709760   0.608578298995411   0.375000000000000   1.0000000
N2   N   0.387078106452474   0.111267846105897   0.375000000000000   1.0000000
N2   N   0.891546546069279   0.610265086921373   0.375000000000000   1.0000000
N2   N   0.722351244777424   0.115870129413615   0.375000000000000   1.0000000
N2   N   0.055554677210738   0.777777788396398   0.875000000000000   1.0000000
N2   N   0.388879012025173   0.777777582066227   0.875000000000000   1.0000000
N2   N   0.222218564738041   0.277783495336090   0.875000000000000   1.0000000
N2   N   0.722212933042747   0.777776718805178   0.875000000000000   1.0000000
N2   N   0.555546171753120   0.277775027462638   0.875000000000000   1.0000000
N2   N   0.888886882131190   0.277785720377309   0.875000000000000   1.0000000
N2   N   0.224749253454589   0.778937228451511   0.375000000000000   1.0000000
N2   N   0.053763550217679   0.277780520177383   0.375000000000000   1.0000000
N2   N   0.384439910208674   0.277665200958200   0.375000000000000   1.0000000
N2   N   0.556969984061260   0.777209770588890   0.375000000000000   1.0000000
N2   N   0.888670584841413   0.775235499123851   0.375000000000000   1.0000000
N2   N   0.723261415892403   0.290230783991303   0.375000000000000   1.0000000
N2   N   0.055552126042206   0.944446243637319   0.875000000000000   1.0000000
N2   N   0.388881094593975   0.944439297532328   0.875000000000000   1.0000000
N2   N   0.222217422431102   0.444451678552769   0.875000000000000   1.0000000
N2   N   0.555544963736185   0.444447066009161   0.875000000000000   1.0000000
N2   N   0.722211936001076   0.944444310909399   0.875000000000000   1.0000000
N2   N   0.888893777003549   0.444452209311297   0.875000000000000   1.0000000
N2   N   0.056742947850470   0.445445295541550   0.375000000000000   1.0000000
N2   N   0.222123738681916   0.944216807086297   0.375000000000000   1.0000000
N2   N   0.556832916321863   0.946296781085964   0.375000000000000   1.0000000
N2   N   0.387773234673273   0.440348575979764   0.375000000000000   1.0000000
N2   N   0.887744873437035   0.942978013999063   0.375000000000000   1.0000000
N2   N   0.222214493428569   0.611113230478342   0.875000000000000   1.0000000
N2   N   0.055551911558344   0.111113164468432   0.875000000000000   1.0000000
N2   N   0.555542586382399   0.611108163474685   0.875000000000000   1.0000000
N2   N   0.388881799572333   0.111104138154176   0.875000000000000   1.0000000
N2   N   0.888892073147537   0.611113389058201   0.875000000000000   1.0000000
N2   N   0.059788327986462   0.612988684638109   0.375000000000000   1.0000000
N2   N   0.722211700114393   0.111111982918943   0.875000000000000   1.0000000
N2   N   0.220155665379905   0.110162789021426   0.375000000000000   1.0000000
N2   N   0.390685664889518   0.609565765835201   0.375000000000000   1.0000000
N2   N   0.724202268129189   0.600959811125820   0.375000000000000   1.0000000
N2   N   0.556519109245898   0.115213016984217   0.375000000000000   1.0000000
N2   N   0.388878467789620   0.611112815078284   0.875000000000000   1.0000000
N2   N   0.887505163988314   0.111570727676673   0.375000000000000   1.0000000
N2   N   0.222216297183724   0.777775566833320   0.875000000000000   1.0000000
N2   N   0.055553357923906   0.277785573433949   0.875000000000000   1.0000000
N2   N   0.388881879014346   0.277778388266552   0.875000000000000   1.0000000
N2   N   0.555542161272314   0.777774760457641   0.875000000000000   1.0000000
N2   N   0.888886670004934   0.777780216497776   0.875000000000000   1.0000000
N2   N   0.722216671370112   0.277780881333011   0.875000000000000   1.0000000
N2   N   0.056705389948286   0.777595458748132   0.375000000000000   1.0000000
N2   N   0.391039539759321   0.778195557364205   0.375000000000000   1.0000000
N2   N   0.218880165090646   0.276342440475363   0.375000000000000   1.0000000
N2   N   0.722763992611305   0.773758720821553   0.375000000000000   1.0000000
N2   N   0.551694088157564   0.280381495167486   0.375000000000000   1.0000000
N2   N   0.887970374052749   0.280125557750788   0.375000000000000   1.0000000
N2   N   0.055554259283448   0.444452449134129   0.875000000000000   1.0000000
N2   N   0.222216970549572   0.944440901399007   0.875000000000000   1.0000000
N2   N   0.555543052665528   0.944443021468105   0.875000000000000   1.0000000
N2   N   0.388880828348127   0.444451549567419   0.875000000000000   1.0000000
N2   N   0.888886039236384   0.944447487024704   0.875000000000000   1.0000000
N2   N   0.054395396769797   0.943175846519069   0.375000000000000   1.0000000
N2   N   0.722221430620987   0.444448651753379   0.875000000000000   1.0000000
N2   N   0.390347001780677   0.945958615205858   0.375000000000000   1.0000000
N2   N   0.222664777609082   0.444095496705114   0.375000000000000   1.0000000
N2   N   0.224898457591406   0.611677263943074   0.375000000000000   1.0000000
N2   N   0.722337866741804   0.944641060957391   0.375000000000000   1.0000000
N2   N   0.891429134517077   0.447909527760319   0.375000000000000   1.0000000
N2   N   0.055554892944258   0.611112131776641   0.875000000000000   1.0000000
N2   N   0.222216985930993   0.111110424522228   0.875000000000000   1.0000000
N2   N   0.722214915946212   0.611110193574303   0.875000000000000   1.0000000
N2   N   0.555544426719751   0.111107535281924   0.875000000000000   1.0000000
N2   N   0.888884868861197   0.111114529085043   0.875000000000000   1.0000000
B2   B   0.109448837956544   0.054568723685258   0.375000000000000   1.0000000
B2   B   0.611677589366150   0.549155778305401   0.375000000000000   1.0000000
B2   B   0.445438134623597   0.058574802494688   0.375000000000000   1.0000000
B2   B   0.949667739040490   0.558030316019419   0.375000000000000   1.0000000
B2   B   0.776381232090061   0.057490215296745   0.375000000000000   1.0000000
B2   B   0.111105125784460   0.722220450801806   0.875000000000000   1.0000000
B2   B   0.444435537545884   0.722212648410336   0.875000000000000   1.0000000
B2   B   0.277851245314898   0.222256996162001   0.875000000000000   1.0000000
B2   B   0.777734522671111   0.722159313807039   0.875000000000000   1.0000000
B2   B   0.611073636759915   0.222261530675536   0.875000000000000   1.0000000
B2   B   0.944428590177429   0.222241244284373   0.875000000000000   1.0000000
B2   B   0.280181503210057   0.723034517176379   0.375000000000000   1.0000000
B2   B   0.108359469917219   0.221217090237426   0.375000000000000   1.0000000
B2   B   0.445802413416628   0.224726166404665   0.375000000000000   1.0000000
B2   B   0.611668919755777   0.719735254255968   0.375000000000000   1.0000000
B2   B   0.945313145509633   0.721040579815062   0.375000000000000   1.0000000
B2   B   0.776245302996954   0.229664624500480   0.375000000000000   1.0000000
B2   B   0.111128806504487   0.888897843981979   0.875000000000000   1.0000000
B2   B   0.444440588833172   0.888914249555601   0.875000000000000   1.0000000
B2   B   0.277823971596003   0.388900778522195   0.875000000000000   1.0000000
B2   B   0.611071519758097   0.388864905002483   0.875000000000000   1.0000000
B2   B   0.777750180809231   0.888867772345684   0.875000000000000   1.0000000
B2   B   0.944408489290098   0.388896436421900   0.875000000000000   1.0000000
B2   B   0.111217325275203   0.389020827670970   0.375000000000000   1.0000000
B2   B   0.279541931520743   0.890295914032217   0.375000000000000   1.0000000
B2   B   0.611394544894594   0.889235592457515   0.375000000000000   1.0000000
B2   B   0.943188034210706   0.886879663482706   0.375000000000000   1.0000000
B2   B   0.780182752806504   0.404986541843767   0.375000000000000   1.0000000
B2   B   0.277789074018624   0.555557202312346   0.875000000000000   1.0000000
B2   B   0.111150814979039   0.055577209444829   0.875000000000000   1.0000000
B2   B   0.611074118622169   0.555477273464592   0.875000000000000   1.0000000
B2   B   0.444460115649271   0.055604612059439   0.875000000000000   1.0000000
B2   B   0.944403328925839   0.555534308485231   0.875000000000000   1.0000000
B2   B   0.114012900340050   0.556464395300229   0.375000000000000   1.0000000
B2   B   0.777744908155372   0.055570132694100   0.875000000000000   1.0000000
B2   B   0.277314896092001   0.055668800934862   0.375000000000000   1.0000000
B2   B   0.446285425560999   0.552766487297283   0.375000000000000   1.0000000
B2   B   0.780727764167246   0.541946136475988   0.375000000000000   1.0000000
B2   B   0.610983206286404   0.059147713955233   0.375000000000000   1.0000000
B2   B   0.444453230683178   0.555526800434404   0.875000000000000   1.0000000
B2   B   0.942307387831094   0.054638901305806   0.375000000000000   1.0000000
B2   B   0.277779807691188   0.722232462680415   0.875000000000000   1.0000000
B2   B   0.111144256633290   0.222244642712358   0.875000000000000   1.0000000
B2   B   0.444492999610940   0.222264541006934   0.875000000000000   1.0000000
B2   B   0.611081299039931   0.722173332034951   0.875000000000000   1.0000000
B2   B   0.944417230642346   0.722189308388299   0.875000000000000   1.0000000
B2   B   0.777726105566742   0.222248404192387   0.875000000000000   1.0000000
B2   B   0.113988888332030   0.723721778118040   0.375000000000000   1.0000000
B2   B   0.445989167676234   0.721368611906038   0.375000000000000   1.0000000
B2   B   0.274909138595786   0.221427781804493   0.375000000000000   1.0000000
B2   B   0.777386128163702   0.714728938944718   0.375000000000000   1.0000000
B2   B   0.608718276736862   0.230793344179593   0.375000000000000   1.0000000
B2   B   0.942417320151232   0.223043570583393   0.375000000000000   1.0000000
B2   B   0.111118010465106   0.388903593660160   0.875000000000000   1.0000000
B2   B   0.277798134263196   0.888917407387375   0.875000000000000   1.0000000
B2   B   0.611083203700362   0.888887689160354   0.875000000000000   1.0000000
B2   B   0.444489921828806   0.388885384092436   0.875000000000000   1.0000000
B2   B   0.944438808252246   0.888874472348662   0.875000000000000   1.0000000
B2   B   0.111277762888486   0.888590037033832   0.375000000000000   1.0000000
B2   B   0.777714806516625   0.388881486224451   0.875000000000000   1.0000000
B2   B   0.445871672617484   0.890223397421523   0.375000000000000   1.0000000
B2   B   0.276627717562474   0.386961458886123   0.375000000000000   1.0000000
B2   B   0.279733149861037   0.555288529866383   0.375000000000000   1.0000000
B2   B   0.776739123136797   0.886378302502397   0.375000000000000   1.0000000
B2   B   0.945041263175771   0.390797725160247   0.375000000000000   1.0000000
B2   B   0.111099785380493   0.555556496316577   0.875000000000000   1.0000000
B2   B   0.277833778995962   0.055598322936455   0.875000000000000   1.0000000
B2   B   0.777717437061146   0.555496857579346   0.875000000000000   1.0000000
B2   B   0.611079444784550   0.055592043501069   0.875000000000000   1.0000000
B2   B   0.944444496623172   0.055564013833389   0.875000000000000   1.0000000
B2   B   0.055501409914186   0.111071186534464   0.125022683626031   1.0000000
B2   B   0.555607795658421   0.610927672521298   0.125253730634304   1.0000000
B2   B   0.389033581510248   0.111374292446509   0.125555970351141   1.0000000
B2   B   0.888692908530565   0.610987917305283   0.125104863551792   1.0000000
B2   B   0.722133815336986   0.111171117286465   0.125243922133008   1.0000000
B2   B   0.055496753523314   0.777776533755964   0.624955744805209   1.0000000
B2   B   0.388950417983161   0.777838468012215   0.624944284952880   1.0000000
B2   B   0.222241763536650   0.277711675310476   0.624962145967946   1.0000000
B2   B   0.722166008166133   0.777667951185841   0.624866903407635   1.0000000
B2   B   0.555590731491933   0.277983869082889   0.623044353062567   1.0000000
B2   B   0.888726221667707   0.277750050594736   0.624870392209094   1.0000000
B2   B   0.222255179317688   0.777859455214054   0.125040908034558   1.0000000
B2   B   0.055480563175674   0.277722743531329   0.125029584571937   1.0000000
B2   B   0.389056025719158   0.277843402179372   0.125423974875775   1.0000000
B2   B   0.555581451016236   0.777741508039392   0.125075975515691   1.0000000
B2   B   0.888773896805171   0.777678626343369   0.125088494120189   1.0000000
B2   B   0.722009635349268   0.277800850537206   0.125638595057816   1.0000000
B2   B   0.055516368159269   0.944438095453653   0.624955422772324   1.0000000
B2   B   0.388984064897496   0.944652467837572   0.624820132051663   1.0000000
B2   B   0.222239803608145   0.444368412779059   0.624954681653204   1.0000000
B2   B   0.555552542080399   0.444219454802553   0.623587986686244   1.0000000
B2   B   0.722174728860497   0.944435616439742   0.624914076929562   1.0000000
B2   B   0.888661659975306   0.444360469270772   0.624878434442225   1.0000000
B2   B   0.055459255689858   0.444390938444443   0.125044166852958   1.0000000
B2   B   0.222278045796433   0.944572639539364   0.125089024203658   1.0000000
B2   B   0.555580033034967   0.944556461715965   0.125128764830243   1.0000000
B2   B   0.389022778602008   0.444279552040902   0.125056737887238   1.0000000
B2   B   0.888808046390331   0.944387277293067   0.125049807466174   1.0000000
B2   B   0.721854666810495   0.444244061847526   0.125476893751683   1.0000000
B2   B   0.222237936290095   0.611098714064663   0.624972917912230   1.0000000
B2   B   0.055501409914186   0.111071186534464   0.624977316373969   1.0000000
B2   B   0.555607795658421   0.610927672521298   0.624746269365697   1.0000000
B2   B   0.389033581510248   0.111374292446509   0.624444029648859   1.0000000
B2   B   0.888692908530565   0.610987917305283   0.624895136448207   1.0000000
B2   B   0.055475214958798   0.611084419778899   0.125043696271338   1.0000000
B2   B   0.722133815336986   0.111171117286465   0.624756077866992   1.0000000
B2   B   0.222268323913001   0.111162994158051   0.125135764415602   1.0000000
B2   B   0.388968407200052   0.611030554081398   0.125081207390589   1.0000000
B2   B   0.722048598289511   0.610892318175494   0.125331903968644   1.0000000
B2   B   0.555595651056792   0.111351782998118   0.125657695640022   1.0000000
B2   B   0.388968407200052   0.611030554081398   0.624918792609412   1.0000000
B2   B   0.888787795978487   0.111081242071487   0.125059967280552   1.0000000
B2   B   0.222255179317688   0.777859455214054   0.624959091965441   1.0000000
B2   B   0.055480563175674   0.277722743531329   0.624970415428064   1.0000000
B2   B   0.389056025719158   0.277843402179372   0.624576025124224   1.0000000
B2   B   0.555581451016236   0.777741508039392   0.624924024484309   1.0000000
B2   B   0.888773896805171   0.777678626343369   0.624911505879810   1.0000000
B2   B   0.722009635349268   0.277800850537206   0.624361404942184   1.0000000
B2   B   0.055496753523314   0.777776533755964   0.125044255194792   1.0000000
B2   B   0.388950417983161   0.777838468012215   0.125055715047120   1.0000000
B2   B   0.222241763536650   0.277711675310476   0.125037854032054   1.0000000
B2   B   0.722166008166133   0.777667951185841   0.125133096592365   1.0000000
B2   B   0.555590731491933   0.277983869082889   0.126955646937432   1.0000000
B2   B   0.888726221667707   0.277750050594736   0.125129607790905   1.0000000
B2   B   0.055459255689858   0.444390938444443   0.624955833147043   1.0000000
B2   B   0.222278045796433   0.944572639539364   0.624910975796342   1.0000000
B2   B   0.555580033034967   0.944556461715965   0.624871235169757   1.0000000
B2   B   0.389022778602008   0.444279552040902   0.624943262112762   1.0000000
B2   B   0.888808046390331   0.944387277293067   0.624950192533826   1.0000000
B2   B   0.055516368159269   0.944438095453653   0.125044577227677   1.0000000
B2   B   0.721854666810495   0.444244061847526   0.624523106248316   1.0000000
B2   B   0.388984064897496   0.944652467837572   0.125179867948338   1.0000000
B2   B   0.222239803608145   0.444368412779059   0.125045318346795   1.0000000
B2   B   0.222237936290095   0.611098714064663   0.125027082087771   1.0000000
B2   B   0.555552542080399   0.444219454802553   0.126412013313756   1.0000000
B2   B   0.722174728860497   0.944435616439742   0.125085923070438   1.0000000
B2   B   0.888661659975306   0.444360469270772   0.125121565557775   1.0000000
B2   B   0.055475214958798   0.611084419778899   0.624956303728662   1.0000000
B2   B   0.222268323913001   0.111162994158051   0.624864235584398   1.0000000
B2   B   0.722048598289511   0.610892318175494   0.624668096031355   1.0000000
B2   B   0.555595651056792   0.111351782998118   0.624342304359978   1.0000000
B2   B   0.888787795978487   0.111081242071487   0.624940032719448   1.0000000


