data_1
_audit_creation_method   'vasp2cif'
_cell_length_a    14.93631414619966
_cell_length_b    14.936314146199727
_cell_length_c    13.341276283792837
_cell_angle_alpha    90.0
_cell_angle_beta    90.0
_cell_angle_gamma    119.99999999999984

_symmetry_space_group_name_H-M    'P 1'
loop_
_atom_site_label
_atom_site_type_symbol
_atom_site_fract_x
_atom_site_fract_y
_atom_site_fract_z
_atom_site_occupancy
O2   O   0.562730547503945   0.448031940418637   0.375000000000000   1.0000000
N2   N   0.111092509569947   0.055547688424633   0.125011133054174   1.0000000
N2   N   0.611088195240760   0.555525862885917   0.125496380410127   1.0000000
N2   N   0.444448346730543   0.055554801684175   0.125000631398772   1.0000000
N2   N   0.944443159140657   0.555554989328964   0.125030816709727   1.0000000
N2   N   0.777766175209651   0.055549754271493   0.125014929159113   1.0000000
N2   N   0.111112390295100   0.722222861814215   0.624983000910237   1.0000000
N2   N   0.444448346730543   0.722226878379703   0.624999368601228   1.0000000
N2   N   0.277745130237001   0.222211707786707   0.624948178274540   1.0000000
N2   N   0.777767749068250   0.722212480082645   0.624968992404347   1.0000000
N2   N   0.611104301198905   0.222218680650170   0.624953732313453   1.0000000
N2   N   0.944422604841923   0.222213948093518   0.624988582347237   1.0000000
N2   N   0.277782356930177   0.722223810450538   0.125008914075006   1.0000000
N2   N   0.111076219012356   0.222204776172842   0.125006602592176   1.0000000
N2   N   0.444448717705439   0.222219021868772   0.125057120402060   1.0000000
N2   N   0.611104301198905   0.722218953882065   0.125046267686547   1.0000000
N2   N   0.944443159140657   0.722221503145028   0.125030816709727   1.0000000
N2   N   0.777768426682527   0.222220165360002   0.125024255800640   1.0000000
N2   N   0.111108332605896   0.888889330929236   0.624986227525115   1.0000000
N2   N   0.444448027199577   0.888890680266452   0.624984594476238   1.0000000
N2   N   0.277745130237001   0.388866755783622   0.624948178274540   1.0000000
N2   N   0.611088195240760   0.388895665688171   0.624503619589873   1.0000000
N2   N   0.777768426682527   0.888881594655854   0.624975744199360   1.0000000
N2   N   0.944435539447956   0.388886972776662   0.624978067237081   1.0000000
N2   N   0.111092509569947   0.388878154478643   0.125011133054174   1.0000000
N2   N   0.277782356930177   0.888891879812968   0.125008914075006   1.0000000
N2   N   0.611107323240280   0.888889987451639   0.125008141068612   1.0000000
N2   N   0.444414421965211   0.388873877649271   0.124943345829004   1.0000000
N2   N   0.944435539447956   0.888881900004623   0.125021932762918   1.0000000
N2   N   0.777767749068250   0.388888602318933   0.125031007595654   1.0000000
N2   N   0.277775124796290   0.555551240369219   0.624999903736242   1.0000000
N2   N   0.111092509569947   0.055547688424633   0.624988866945827   1.0000000
N2   N   0.611088195240760   0.555525862885917   0.624503619589873   1.0000000
N2   N   0.444448346730543   0.055554801684175   0.624999368601228   1.0000000
N2   N   0.944443159140657   0.555554989328964   0.624969183290273   1.0000000
N2   N   0.111108332605896   0.555552335009989   0.125013772474885   1.0000000
N2   N   0.777766175209651   0.055549754271493   0.624985070840887   1.0000000
N2   N   0.277775124796290   0.055557217760406   0.125000096263758   1.0000000
N2   N   0.444448717705439   0.555563029170002   0.125057120402060   1.0000000
N2   N   0.777770575031204   0.555551954182270   0.125063965606010   1.0000000
N2   N   0.611107323240280   0.055550669121970   0.125008141068612   1.0000000
N2   N   0.444448717705439   0.555563029170002   0.624942879597940   1.0000000
N2   N   0.944422604841923   0.055541990081740   0.125011417652763   1.0000000
N2   N   0.277782356930177   0.722223810450538   0.624991085924994   1.0000000
N2   N   0.111076219012356   0.222204776172842   0.624993397407824   1.0000000
N2   N   0.444448717705439   0.222219021868772   0.624942879597940   1.0000000
N2   N   0.611104301198905   0.722218953882065   0.624953732313453   1.0000000
N2   N   0.944443159140657   0.722221503145028   0.624969183290273   1.0000000
N2   N   0.777768426682527   0.222220165360002   0.624975744199360   1.0000000
N2   N   0.111112390295100   0.722222861814215   0.125016999089763   1.0000000
N2   N   0.444448346730543   0.722226878379703   0.125000631398772   1.0000000
N2   N   0.277745130237001   0.222211707786707   0.125051821725459   1.0000000
N2   N   0.777767749068250   0.722212480082645   0.125031007595654   1.0000000
N2   N   0.611104301198905   0.222218680650170   0.125046267686547   1.0000000
N2   N   0.944422604841923   0.222213948093518   0.125011417652763   1.0000000
N2   N   0.111092509569947   0.388878154478643   0.624988866945827   1.0000000
N2   N   0.277782356930177   0.888891879812968   0.624991085924994   1.0000000
N2   N   0.611107323240280   0.888889987451639   0.624991858931387   1.0000000
N2   N   0.444414421965211   0.388873877649271   0.625056654170996   1.0000000
N2   N   0.944435539447956   0.888881900004623   0.624978067237081   1.0000000
N2   N   0.111108332605896   0.888889330929236   0.125013772474885   1.0000000
N2   N   0.777767749068250   0.388888602318933   0.624968992404347   1.0000000
N2   N   0.444448027199577   0.888890680266452   0.125015405523763   1.0000000
N2   N   0.277745130237001   0.388866755783622   0.125051821725459   1.0000000
N2   N   0.277775124796290   0.555551240369219   0.125000096263758   1.0000000
N2   N   0.611088195240760   0.388895665688171   0.125496380410127   1.0000000
N2   N   0.777768426682527   0.888881594655854   0.125024255800640   1.0000000
N2   N   0.944435539447956   0.388886972776662   0.125021932762918   1.0000000
N2   N   0.111108332605896   0.555552335009989   0.624986227525115   1.0000000
N2   N   0.277775124796290   0.055557217760406   0.624999903736242   1.0000000
N2   N   0.777770575031204   0.555551954182270   0.624936034393990   1.0000000
N2   N   0.611107323240280   0.055550669121970   0.624991858931387   1.0000000
N2   N   0.944422604841923   0.055541990081740   0.624988582347237   1.0000000
N2   N   0.054584293476835   0.110427473144850   0.375000000000000   1.0000000
N2   N   0.557045644596526   0.609929673432285   0.375000000000000   1.0000000
N2   N   0.389189673594879   0.110552433641723   0.375000000000000   1.0000000
N2   N   0.889965225710823   0.611649279522083   0.375000000000000   1.0000000
N2   N   0.722188494912585   0.111227968715748   0.375000000000000   1.0000000
N2   N   0.055554066719378   0.777777612654964   0.875000000000000   1.0000000
N2   N   0.388888957086554   0.777778337421294   0.875000000000000   1.0000000
N2   N   0.222219321473152   0.277776327403244   0.875000000000000   1.0000000
N2   N   0.722223216499320   0.777777657169443   0.875000000000000   1.0000000
N2   N   0.555556399457437   0.277780250385640   0.875000000000000   1.0000000
N2   N   0.888891679720889   0.277780298148139   0.875000000000000   1.0000000
N2   N   0.222610391368201   0.777971862350769   0.375000000000000   1.0000000
N2   N   0.054584293476835   0.277490153665321   0.375000000000000   1.0000000
N2   N   0.381988450151047   0.264986941325308   0.375000000000000   1.0000000
N2   N   0.556003672343556   0.777366897306581   0.375000000000000   1.0000000
N2   N   0.889277764285623   0.777816289970596   0.375000000000000   1.0000000
N2   N   0.722545796095352   0.278275906082610   0.375000000000000   1.0000000
N2   N   0.055554562078130   0.944443439394906   0.875000000000000   1.0000000
N2   N   0.388888957086554   0.944443952998596   0.875000000000000   1.0000000
N2   N   0.222219543233348   0.444444017320762   0.875000000000000   1.0000000
N2   N   0.555557060753183   0.444445197043256   0.875000000000000   1.0000000
N2   N   0.722221501256811   0.944444028757825   0.875000000000000   1.0000000
N2   N   0.888891605749220   0.444445489727127   0.875000000000000   1.0000000
N2   N   0.055230907463186   0.444626838618562   0.375000000000000   1.0000000
N2   N   0.222418121601835   0.944354768122078   0.375000000000000   1.0000000
N2   N   0.555830471503671   0.944581902418500   0.375000000000000   1.0000000
N2   N   0.381988450151047   0.450334842159075   0.375000000000000   1.0000000
N2   N   0.888615930763212   0.944114180865377   0.375000000000000   1.0000000
N2   N   0.723590986436599   0.445407715184522   0.375000000000000   1.0000000
N2   N   0.222219487127160   0.611110152582750   0.875000000000000   1.0000000
N2   N   0.055554681275800   0.111109200421552   0.875000000000000   1.0000000
N2   N   0.555556399457437   0.611109482405133   0.875000000000000   1.0000000
N2   N   0.388888210137695   0.111110716615177   0.875000000000000   1.0000000
N2   N   0.888890370871810   0.611111852102577   0.875000000000000   1.0000000
N2   N   0.056042344865241   0.611407828353939   0.375000000000000   1.0000000
N2   N   0.722221501256811   0.111110805832323   0.875000000000000   1.0000000
N2   N   0.220824559137233   0.109576305484285   0.375000000000000   1.0000000
N2   N   0.389189673594879   0.611970573286500   0.375000000000000   1.0000000
N2   N   0.723590986436599   0.611516604585413   0.375000000000000   1.0000000
N2   N   0.556003672343556   0.111970108370310   0.375000000000000   1.0000000
N2   N   0.388888210137695   0.611110826855860   0.875000000000000   1.0000000
N2   N   0.888416627460869   0.110874980397106   0.375000000000000   1.0000000
N2   N   0.222220427131796   0.777776880232566   0.875000000000000   1.0000000
N2   N   0.055554681275800   0.277778814187583   0.875000000000000   1.0000000
N2   N   0.388888455852680   0.277777056536642   0.875000000000000   1.0000000
N2   N   0.555554265961101   0.777777389787737   0.875000000000000   1.0000000
N2   N   0.888891605749220   0.777779449355430   0.875000000000000   1.0000000
N2   N   0.722223216499320   0.277778892663213   0.875000000000000   1.0000000
N2   N   0.056042344865241   0.777967849844638   0.375000000000000   1.0000000
N2   N   0.389245891431496   0.778067910539351   0.375000000000000   1.0000000
N2   N   0.219985557762304   0.276659445547820   0.375000000000000   1.0000000
N2   N   0.722545796095352   0.777603223346077   0.375000000000000   1.0000000
N2   N   0.557045644596526   0.280449304497576   0.375000000000000   1.0000000
N2   N   0.888615930763212   0.277835083231170   0.375000000000000   1.0000000
N2   N   0.055554562078130   0.444444456016553   0.875000000000000   1.0000000
N2   N   0.222219487127160   0.944442667877746   0.875000000000000   1.0000000
N2   N   0.555553328858078   0.944443331095704   0.875000000000000   1.0000000
N2   N   0.388888455852680   0.444444732649374   0.875000000000000   1.0000000
N2   N   0.888891679720889   0.944444714906086   0.875000000000000   1.0000000
N2   N   0.055230907463186   0.943937402177953   0.375000000000000   1.0000000
N2   N   0.722221741667676   0.444444704498456   0.875000000000000   1.0000000
N2   N   0.389245891431496   0.944511314225480   0.375000000000000   1.0000000
N2   N   0.220824559137233   0.444581586986283   0.375000000000000   1.0000000
N2   N   0.222418121601835   0.611396686813093   0.375000000000000   1.0000000
N2   N   0.722188494912585   0.944293859530173   0.375000000000000   1.0000000
N2   N   0.889277764285623   0.444794807648363   0.375000000000000   1.0000000
N2   N   0.055554066719378   0.611109787397750   0.875000000000000   1.0000000
N2   N   0.222219543233348   0.111108859245922   0.875000000000000   1.0000000
N2   N   0.722221741667676   0.611110370502554   0.875000000000000   1.0000000
N2   N   0.555554265961101   0.111110209506699   0.875000000000000   1.0000000
N2   N   0.888890981256202   0.111112157294772   0.875000000000000   1.0000000
B2   B   0.110074139426618   0.054731549543658   0.375000000000000   1.0000000
B2   B   0.612972573602280   0.554570974414335   0.375000000000000   1.0000000
B2   B   0.444880108629706   0.055515304164476   0.375000000000000   1.0000000
B2   B   0.945160810514570   0.555874226445578   0.375000000000000   1.0000000
B2   B   0.777498017024958   0.055415675179147   0.375000000000000   1.0000000
B2   B   0.111113990092756   0.722223661713041   0.875000000000000   1.0000000
B2   B   0.444437135796533   0.722210400950077   0.875000000000000   1.0000000
B2   B   0.277789352970901   0.222233302069853   0.875000000000000   1.0000000
B2   B   0.777776599765908   0.722222244196671   0.875000000000000   1.0000000
B2   B   0.611100998657690   0.222223545122679   0.875000000000000   1.0000000
B2   B   0.944454592276584   0.222226607465777   0.875000000000000   1.0000000
B2   B   0.278118972867931   0.722443554376330   0.375000000000000   1.0000000
B2   B   0.109381567442655   0.221357450387992   0.375000000000000   1.0000000
B2   B   0.446442398241504   0.222527148212626   0.375000000000000   1.0000000
B2   B   0.611640328203006   0.721547486223629   0.375000000000000   1.0000000
B2   B   0.945160810514570   0.722619917402326   0.375000000000000   1.0000000
B2   B   0.777691982067433   0.222302343427075   0.375000000000000   1.0000000
B2   B   0.111116124594659   0.888895491580327   0.875000000000000   1.0000000
B2   B   0.444439610103823   0.888886471718575   0.875000000000000   1.0000000
B2   B   0.277789352970901   0.388889384234377   0.875000000000000   1.0000000
B2   B   0.611093559477109   0.388885247556982   0.875000000000000   1.0000000
B2   B   0.777779344733794   0.888889636653416   0.875000000000000   1.0000000
B2   B   0.944451940105873   0.388890067298802   0.875000000000000   1.0000000
B2   B   0.110074139426618   0.388675923216289   0.375000000000000   1.0000000
B2   B   0.278118972867931   0.889008751824931   0.375000000000000   1.0000000
B2   B   0.611220397158578   0.888665732037323   0.375000000000000   1.0000000
B2   B   0.944344696485789   0.888733448867561   0.375000000000000   1.0000000
B2   B   0.778460430159647   0.389240545372511   0.375000000000000   1.0000000
B2   B   0.277779408682085   0.555547788123163   0.875000000000000   1.0000000
B2   B   0.111122657213146   0.055564884646639   0.875000000000000   1.0000000
B2   B   0.611093559477109   0.555541645253455   0.875000000000000   1.0000000
B2   B   0.444437135796533   0.055560068179792   0.875000000000000   1.0000000
B2   B   0.944448585978463   0.555555815447216   0.875000000000000   1.0000000
B2   B   0.111368024812241   0.555765814271975   0.375000000000000   1.0000000
B2   B   0.777780359275995   0.055556846304665   0.875000000000000   1.0000000
B2   B   0.277841558158102   0.055398960683134   0.375000000000000   1.0000000
B2   B   0.446442398241504   0.557248583362213   0.375000000000000   1.0000000
B2   B   0.779401036943225   0.556367185138280   0.375000000000000   1.0000000
B2   B   0.611220397158578   0.055887998454582   0.375000000000000   1.0000000
B2   B   0.444431162815585   0.555535454518014   0.875000000000000   1.0000000
B2   B   0.943759570171577   0.055125944200654   0.375000000000000   1.0000000
B2   B   0.277777259609344   0.722218406240021   0.875000000000000   1.0000000
B2   B   0.111125030728908   0.222229182031118   0.875000000000000   1.0000000
B2   B   0.444431162815585   0.222229041630908   0.875000000000000   1.0000000
B2   B   0.611100998657690   0.722210786868341   0.875000000000000   1.0000000
B2   B   0.944448585978463   0.722226103864583   0.875000000000000   1.0000000
B2   B   0.777779344733794   0.222223041413707   0.875000000000000   1.0000000
B2   B   0.111591538391129   0.722462435862229   0.375000000000000   1.0000000
B2   B   0.444880108629706   0.722698137798565   0.375000000000000   1.0000000
B2   B   0.274582534483766   0.221100734754014   0.375000000000000   1.0000000
B2   B   0.778460430159647   0.722553218120464   0.375000000000000   1.0000000
B2   B   0.611640328203006   0.223426175312706   0.375000000000000   1.0000000
B2   B   0.943759570171577   0.221966959304257   0.375000000000000   1.0000000
B2   B   0.111122657213146   0.388891105899835   0.875000000000000   1.0000000
B2   B   0.277777259609344   0.888892186702650   0.875000000000000   1.0000000
B2   B   0.611105415740505   0.888883814832404   0.875000000000000   1.0000000
B2   B   0.444426525131505   0.388879929232417   0.875000000000000   1.0000000
B2   B   0.944451940105873   0.888895206140400   0.875000000000000   1.0000000
B2   B   0.111368024812241   0.888935543873594   0.375000000000000   1.0000000
B2   B   0.777776599765908   0.388887688902567   0.875000000000000   1.0000000
B2   B   0.444780145753679   0.889056739543504   0.375000000000000   1.0000000
B2   B   0.274582534483766   0.386815133063081   0.375000000000000   1.0000000
B2   B   0.277841558158102   0.555775930808303   0.375000000000000   1.0000000
B2   B   0.612972573602280   0.391734932521274   0.375000000000000   1.0000000
B2   B   0.777691982067433   0.888722971973686   0.375000000000000   1.0000000
B2   B   0.944344696485789   0.388944580951557   0.375000000000000   1.0000000
B2   B   0.111116124594659   0.555553966347662   0.875000000000000   1.0000000
B2   B   0.277779408682085   0.055564953892257   0.875000000000000   1.0000000
B2   B   0.777774405853140   0.555553869593238   0.875000000000000   1.0000000
B2   B   0.611105415740505   0.055554934241429   0.875000000000000   1.0000000
B2   B   0.944454592276584   0.055561318144143   0.875000000000000   1.0000000
B2   B   0.055555684464211   0.111116316348371   0.124991133708468   1.0000000
B2   B   0.555478447995751   0.611069214294176   0.125149347874526   1.0000000
B2   B   0.388895196096187   0.111151691137933   0.125018168841236   1.0000000
B2   B   0.888896678554981   0.611115005944162   0.124988345553270   1.0000000
B2   B   0.722209636958707   0.111101978053000   0.124998378961640   1.0000000
B2   B   0.055573371326107   0.777792614929688   0.625000030371355   1.0000000
B2   B   0.388895384051323   0.777773457477298   0.625002354135282   1.0000000
B2   B   0.222251565623862   0.277792449478599   0.624974440929781   1.0000000
B2   B   0.722199396062802   0.777772593231396   0.625003663190719   1.0000000
B2   B   0.555478447995751   0.277742567034910   0.624850652125475   1.0000000
B2   B   0.888883272634027   0.277771292093900   0.625004382403032   1.0000000
B2   B   0.222240384658091   0.777786858995714   0.124999985931901   1.0000000
B2   B   0.055555684464211   0.277772701449174   0.124991133708468   1.0000000
B2   B   0.388897666065812   0.277851186545776   0.125434084976914   1.0000000
B2   B   0.555540459708762   0.777770693250255   0.124990717859604   1.0000000
B2   B   0.888887797842680   0.777781904766213   0.124990051014118   1.0000000
B2   B   0.722199396062802   0.277760136164741   0.124996336809280   1.0000000
B2   B   0.055565834150207   0.944461465599705   0.625002929765785   1.0000000
B2   B   0.388895384051323   0.944455259907360   0.625002354135282   1.0000000
B2   B   0.222249202797471   0.444418047342373   0.624975000264665   1.0000000
B2   B   0.555346933120697   0.444340133227013   0.624676026370435   1.0000000
B2   B   0.722209636958707   0.944440992239042   0.625001621038359   1.0000000
B2   B   0.888887797842680   0.444439226409802   0.625009948985882   1.0000000
B2   B   0.055565834150207   0.444437701883829   0.124997070234215   1.0000000
B2   B   0.222241658951680   0.944475722500864   0.124994771842777   1.0000000
B2   B   0.555550820707169   0.944442077020248   0.124995642854557   1.0000000
B2   B   0.388897666065812   0.444379812853372   0.125434084976914   1.0000000
B2   B   0.888883272634027   0.944445313873464   0.124995617596968   1.0000000
B2   B   0.722183328811795   0.444423098378685   0.125070648303520   1.0000000
B2   B   0.222241658951680   0.611099269784151   0.625005228157222   1.0000000
B2   B   0.055555684464211   0.111116316348371   0.625008866291532   1.0000000
B2   B   0.555478447995751   0.611069214294176   0.624850652125475   1.0000000
B2   B   0.388895196096187   0.111151691137933   0.624981831158765   1.0000000
B2   B   0.888896678554981   0.611115005944162   0.625011654446730   1.0000000
B2   B   0.055573371326107   0.611114089729755   0.124999969628645   1.0000000
B2   B   0.722209636958707   0.111101978053000   0.625001621038359   1.0000000
B2   B   0.222249202797471   0.111164488788434   0.125024999735335   1.0000000
B2   B   0.388895196096187   0.611076838291598   0.125018168841236   1.0000000
B2   B   0.722183328811795   0.611093563766445   0.125070648303520   1.0000000
B2   B   0.555540459708762   0.111103099791843   0.124990717859604   1.0000000
B2   B   0.388895196096187   0.611076838291598   0.624981831158765   1.0000000
B2   B   0.888880438114505   0.111106885723924   0.124994604311029   1.0000000
B2   B   0.222240384658091   0.777786858995714   0.625000014068099   1.0000000
B2   B   0.055555684464211   0.277772701449174   0.625008866291532   1.0000000
B2   B   0.388897666065812   0.277851186545776   0.624565915023086   1.0000000
B2   B   0.555540459708762   0.777770693250255   0.625009282140395   1.0000000
B2   B   0.888887797842680   0.777781904766213   0.625009948985882   1.0000000
B2   B   0.722199396062802   0.277760136164741   0.625003663190719   1.0000000
B2   B   0.055573371326107   0.777792614929688   0.124999969628645   1.0000000
B2   B   0.388895384051323   0.777773457477298   0.124997645864719   1.0000000
B2   B   0.222251565623862   0.277792449478599   0.125025559070219   1.0000000
B2   B   0.722199396062802   0.777772593231396   0.124996336809280   1.0000000
B2   B   0.555478447995751   0.277742567034910   0.125149347874526   1.0000000
B2   B   0.888883272634027   0.277771292093900   0.124995617596968   1.0000000
B2   B   0.055565834150207   0.444437701883829   0.625002929765785   1.0000000
B2   B   0.222241658951680   0.944475722500864   0.625005228157222   1.0000000
B2   B   0.555550820707169   0.944442077020248   0.625004357145443   1.0000000
B2   B   0.388897666065812   0.444379812853372   0.624565915023086   1.0000000
B2   B   0.888883272634027   0.944445313873464   0.625004382403032   1.0000000
B2   B   0.055565834150207   0.944461465599705   0.124997070234215   1.0000000
B2   B   0.722183328811795   0.444423098378685   0.624929351696480   1.0000000
B2   B   0.388895384051323   0.944455259907360   0.124997645864719   1.0000000
B2   B   0.222249202797471   0.444418047342373   0.125024999735335   1.0000000
B2   B   0.222241658951680   0.611099269784151   0.124994771842777   1.0000000
B2   B   0.555346933120697   0.444340133227013   0.125323973629564   1.0000000
B2   B   0.722209636958707   0.944440992239042   0.124998378961640   1.0000000
B2   B   0.888887797842680   0.444439226409802   0.124990051014118   1.0000000
B2   B   0.055573371326107   0.611114089729755   0.625000030371355   1.0000000
B2   B   0.222249202797471   0.111164488788434   0.624975000264665   1.0000000
B2   B   0.722183328811795   0.611093563766445   0.624929351696480   1.0000000
B2   B   0.555540459708762   0.111103099791843   0.625009282140395   1.0000000
B2   B   0.888880438114505   0.111106885723924   0.625005395688971   1.0000000


