data_1
_audit_creation_method   'vasp2cif'
_cell_length_a    17.52789999999977
_cell_length_b    17.52789999999977
_cell_length_c    15.0
_cell_angle_alpha    90.0
_cell_angle_beta    90.0
_cell_angle_gamma    119.99999999999916

_symmetry_space_group_name_H-M    'P 1'
loop_
_atom_site_label
_atom_site_type_symbol
_atom_site_fract_x
_atom_site_fract_y
_atom_site_fract_z
_atom_site_occupancy
B2   B   0.906459432151397   0.958239350093819   0.111826294153225   1.0000000
B2   B   0.906057482040894   0.100685626921077   0.111820405037291   1.0000000
B2   B   0.906095070340620   0.243258680710762   0.111805876971893   1.0000000
B2   B   0.906678091112949   0.386125449517863   0.111826323520534   1.0000000
B2   B   0.908575789977117   0.529554738052729   0.111822288392244   1.0000000
B2   B   0.908493009818321   0.673113096942364   0.111815827516215   1.0000000
B2   B   0.908416304921914   0.816801725150797   0.111814940299844   1.0000000
B2   B   0.049136111445775   0.957606997516204   0.111841857387150   1.0000000
B2   B   0.048503758868151   0.100283676810618   0.111826294153225   1.0000000
B2   B   0.048214363189056   0.243116953240854   0.111816421178094   1.0000000
B2   B   0.048442352551331   0.386091148551227   0.111817143646528   1.0000000
B2   B   0.049364843080094   0.529326944587607   0.111836199898295   1.0000000
B2   B   0.049952588551942   0.672381406108360   0.111818350139323   1.0000000
B2   B   0.049837304132687   0.815142396622723   0.111815349571984   1.0000000
B2   B   0.191600712339275   0.956905804829324   0.111815349571984   1.0000000
B2   B   0.189941383811193   0.098326804040067   0.111814940299844   1.0000000
B2   B   0.190395917126407   0.242654168325747   0.111825552236688   1.0000000
B2   B   0.189967610405508   0.385876606881052   0.111827714966936   1.0000000
B2   B   0.190385716335296   0.529332800350834   0.111817661306569   1.0000000
B2   B   0.191809091821981   0.672242344888101   0.111821831407394   1.0000000
B2   B   0.192007380913243   0.814735728048737   0.111804852593358   1.0000000
B2   B   0.334361702854639   0.956790520410061   0.111818350139323   1.0000000
B2   B   0.333630012020649   0.098250099143681   0.111815827516215   1.0000000
B2   B   0.329598830590752   0.237588008946511   0.111828882044809   1.0000000
B2   B   0.332204394996184   0.386740881178325   0.111831283325476   1.0000000
B2   B   0.330427653144864   0.529606434585588   0.111835437819388   1.0000000
B2   B   0.334006445101754   0.672736663861260   0.111827284005114   1.0000000
B2   B   0.334500764074905   0.814934017140038   0.111821831407394   1.0000000
B2   B   0.477416164375381   0.957378265881903   0.111836199898295   1.0000000
B2   B   0.477188370910256   0.098167318984856   0.111822288392244   1.0000000
B2   B   0.476616782840723   0.237535594738921   0.111834445191867   1.0000000
B2   B   0.466528858777709   0.364817127868658   0.111901696430037   1.0000000
B2   B   0.477136674377405   0.676315455818110   0.111835437819388   1.0000000
B2   B   0.477410308612166   0.816357392626698   0.111817661306569   1.0000000
B2   B   0.620651960410777   0.958300756410647   0.111817143646528   1.0000000
B2   B   0.620617659444156   0.100065017849041   0.111826323520534   1.0000000
B2   B   0.620921885107976   0.241970436839757   0.111825119956109   1.0000000
B2   B   0.622119630160317   0.384623478801660   0.111863630606776   1.0000000
B2   B   0.641925981093362   0.540214250185283   0.111901696430037   1.0000000
B2   B   0.620002227783637   0.674538713966825   0.111831283325476   1.0000000
B2   B   0.620866502080956   0.816775498556490   0.111827714966936   1.0000000
B2   B   0.763626155721133   0.958528745772931   0.111816421178094   1.0000000
B2   B   0.763484428251225   0.100648038621350   0.111805876971893   1.0000000
B2   B   0.763740781747608   0.243002327214398   0.111826634133417   1.0000000
B2   B   0.764772672122257   0.385821223854030   0.111825119956109   1.0000000
B2   B   0.769207514223096   0.530126326122301   0.111834445191867   1.0000000
B2   B   0.769155100015497   0.677144278372242   0.111828882044809   1.0000000
B2   B   0.764088940636244   0.816347191835570   0.111825552236688   1.0000000
C2   C   0.468290371612547   0.538452737350431   0.111874131736017   1.0000000
N2   N   0.954655280548353   0.911176736487577   0.111814696519633   1.0000000
N2   N   0.953604125575873   0.053138364108139   0.111806541634961   1.0000000
N2   N   0.953349063889905   0.195607206682969   0.111795075131428   1.0000000
N2   N   0.953538958640413   0.338311071849597   0.111800828729509   1.0000000
N2   N   0.954677584328040   0.481324061748637   0.111814889537592   1.0000000
N2   N   0.955152308338276   0.624718249207207   0.111803193498387   1.0000000
N2   N   0.955131594269094   0.768129945098979   0.111797434054578   1.0000000
N2   N   0.096758327446698   0.909984162237304   0.111809675049433   1.0000000
N2   N   0.095565753196441   0.052087209135655   0.111814696519633   1.0000000
N2   N   0.095610038439851   0.195368546363322   0.111808182906834   1.0000000
N2   N   0.095228310315176   0.338048213890874   0.111803788827038   1.0000000
N2   N   0.095757939451748   0.481260957451027   0.111806810916371   1.0000000
N2   N   0.096831576196231   0.624468882415190   0.111809141102233   1.0000000
N2   N   0.097104676195489   0.767382355471720   0.111793412951941   1.0000000
N2   N   0.239360134212288   0.909637813488534   0.111793412951941   1.0000000
N2   N   0.238612544585021   0.051610895414906   0.111797434054578   1.0000000
N2   N   0.235859617587781   0.192491148341951   0.111798700448610   1.0000000
N2   N   0.237410839050478   0.338094249422121   0.111808131979146   1.0000000
N2   N   0.236279863306933   0.480956609207898   0.111810441644575   1.0000000
N2   N   0.238726883105336   0.624609904808034   0.111803343185776   1.0000000
N2   N   0.239414393720008   0.767328095963961   0.111801619791757   1.0000000
N2   N   0.382273607268819   0.909910913487760   0.111809141102233   1.0000000
N2   N   0.382024240476799   0.051590181345721   0.111803193498387   1.0000000
N2   N   0.380979190674328   0.192840485055754   0.111806570242121   1.0000000
N2   N   0.374838822887315   0.331009491955719   0.111835401101367   1.0000000
N2   N   0.376259477544134   0.482145196517502   0.111799988390773   1.0000000
N2   N   0.381077861434404   0.625664628249591   0.111819247346083   1.0000000
N2   N   0.382132584875968   0.768015606578663   0.111803343185776   1.0000000
N2   N   0.525481532231993   0.910984550232242   0.111806810916371   1.0000000
N2   N   0.525418427934386   0.052064905355960   0.111814889537592   1.0000000
N2   N   0.525497742067010   0.192721376416243   0.111804189496004   1.0000000
N2   N   0.525517497741138   0.331980535560869   0.111850216047929   1.0000000
N2   N   0.524597293165511   0.630483012139866   0.111799988390773   1.0000000
N2   N   0.525785880475090   0.770462626377063   0.111810441644575   1.0000000
N2   N   0.668694275792145   0.911514179368814   0.111803788827038   1.0000000
N2   N   0.668431417833403   0.053203531043566   0.111800828729509   1.0000000
N2   N   0.668587875694383   0.195159209279546   0.111811774732291   1.0000000
N2   N   0.669247224436162   0.337495265246825   0.111813503345350   1.0000000
N2   N   0.674761954122141   0.481224991941873   0.111850216047929   1.0000000
N2   N   0.675732997727278   0.631903666796694   0.111835401101367   1.0000000
N2   N   0.668648240260873   0.769331650633533   0.111808131979146   1.0000000
N2   N   0.811373943320685   0.911132451244143   0.111808182906834   1.0000000
N2   N   0.811135283001036   0.053393425794075   0.111795075131428   1.0000000
N2   N   0.811095344508849   0.195647145175120   0.111796005004085   1.0000000
N2   N   0.811583280404441   0.338154613988602   0.111811774732291   1.0000000
N2   N   0.814021113267718   0.481244747615994   0.111804189496004   1.0000000
N2   N   0.813902004628249   0.625763299009678   0.111806570242121   1.0000000
N2   N   0.814251341342063   0.770882872096202   0.111798700448610   1.0000000
Se2   Se   0.524378762709855   0.482363726973157   0.111880638867896   1.0000000


