data_1
_audit_creation_method   'vasp2cif'
_cell_length_a    14.93631414619966
_cell_length_b    14.936314146199727
_cell_length_c    13.341276283792837
_cell_angle_alpha    90.0
_cell_angle_beta    90.0
_cell_angle_gamma    119.99999999999984

_symmetry_space_group_name_H-M    'P 1'
loop_
_atom_site_label
_atom_site_type_symbol
_atom_site_fract_x
_atom_site_fract_y
_atom_site_fract_z
_atom_site_occupancy
N2   N   0.111097287693682   0.055553884646935   0.124958956490935   1.0000000
N2   N   0.611174137520284   0.555681608373898   0.123872264220579   1.0000000
N2   N   0.444456242041961   0.055568733825986   0.124912170256523   1.0000000
N2   N   0.944431266174014   0.555543757958039   0.124912170256523   1.0000000
N2   N   0.777777602749927   0.055555468041631   0.124948575884299   1.0000000
N2   N   0.111094936470352   0.722214134901840   0.625062739106704   1.0000000
N2   N   0.444456242041961   0.722220841549310   0.625087829743478   1.0000000
N2   N   0.277751784024466   0.222226525339137   0.625201865223205   1.0000000
N2   N   0.777773474660864   0.722248215975534   0.625201865223205   1.0000000
N2   N   0.611141407981342   0.222226525339137   0.625201865223205   1.0000000
N2   N   0.944444531958369   0.222222397250073   0.625051424115701   1.0000000
N2   N   0.277785865098160   0.722214134901840   0.124937260893296   1.0000000
N2   N   0.111078866663555   0.222206099998442   0.124889070066474   1.0000000
N2   N   0.444444474135799   0.222222281604932   0.124646896509245   1.0000000
N2   N   0.611141407981342   0.722248215975534   0.124798134776795   1.0000000
N2   N   0.944431266174014   0.722220841549310   0.124912170256523   1.0000000
N2   N   0.777793900001558   0.222206099998442   0.124889070066474   1.0000000
N2   N   0.111105846699587   0.888894153300413   0.625129229763518   1.0000000
N2   N   0.444454973267498   0.888894153300413   0.625129229763518   1.0000000
N2   N   0.277751784024466   0.388858592018658   0.625201865223205   1.0000000
N2   N   0.611174137520284   0.388825862479715   0.626127735779421   1.0000000
N2   N   0.777793900001558   0.888921133336445   0.625110929933527   1.0000000
N2   N   0.944446115353065   0.388876736380075   0.625041043509065   1.0000000
N2   N   0.111097287693682   0.388876736380075   0.124958956490935   1.0000000
N2   N   0.277785865098160   0.888905063529648   0.124937260893296   1.0000000
N2   N   0.611123263619925   0.888902712306318   0.124958956490935   1.0000000
N2   N   0.444318391626102   0.388825862479715   0.123872264220579   1.0000000
N2   N   0.944446115353065   0.888902712306318   0.124958956490935   1.0000000
N2   N   0.777773474660864   0.388858592018658   0.124798134776795   1.0000000
N2   N   0.277779158450689   0.555543757958039   0.625087829743478   1.0000000
N2   N   0.111097287693682   0.055553884646935   0.625041043509065   1.0000000
N2   N   0.611174137520284   0.555681608373898   0.626127735779421   1.0000000
N2   N   0.444456242041961   0.055568733825986   0.625087829743478   1.0000000
N2   N   0.944431266174014   0.555543757958039   0.625087829743478   1.0000000
N2   N   0.111105846699587   0.555545026732502   0.124870770236482   1.0000000
N2   N   0.777777602749927   0.055555468041631   0.625051424115701   1.0000000
N2   N   0.277779158450689   0.055568733825986   0.124912170256523   1.0000000
N2   N   0.444444474135799   0.555555525864202   0.124646896509245   1.0000000
N2   N   0.777777718395067   0.555555525864202   0.124646896509245   1.0000000
N2   N   0.611123263619925   0.055553884646935   0.124958956490935   1.0000000
N2   N   0.444444474135799   0.555555525864202   0.625353103490755   1.0000000
N2   N   0.944444531958369   0.055555468041631   0.124948575884299   1.0000000
N2   N   0.277785865098160   0.722214134901840   0.625062739106704   1.0000000
N2   N   0.111078866663555   0.222206099998442   0.625110929933527   1.0000000
N2   N   0.444444474135799   0.222222281604932   0.625353103490755   1.0000000
N2   N   0.611141407981342   0.722248215975534   0.625201865223205   1.0000000
N2   N   0.944431266174014   0.722220841549310   0.625087829743478   1.0000000
N2   N   0.777793900001558   0.222206099998442   0.625110929933527   1.0000000
N2   N   0.111094936470352   0.722214134901840   0.124937260893296   1.0000000
N2   N   0.444456242041961   0.722220841549310   0.124912170256523   1.0000000
N2   N   0.277751784024466   0.222226525339137   0.124798134776795   1.0000000
N2   N   0.777773474660864   0.722248215975534   0.124798134776795   1.0000000
N2   N   0.611141407981342   0.222226525339137   0.124798134776795   1.0000000
N2   N   0.944444531958369   0.222222397250073   0.124948575884299   1.0000000
N2   N   0.111097287693682   0.388876736380075   0.625041043509065   1.0000000
N2   N   0.277785865098160   0.888905063529648   0.625062739106704   1.0000000
N2   N   0.611123263619925   0.888902712306318   0.625041043509065   1.0000000
N2   N   0.444318391626102   0.388825862479715   0.626127735779421   1.0000000
N2   N   0.944446115353065   0.888902712306318   0.625041043509065   1.0000000
N2   N   0.111105846699587   0.888894153300413   0.124870770236482   1.0000000
N2   N   0.777773474660864   0.388858592018658   0.625201865223205   1.0000000
N2   N   0.444454973267498   0.888894153300413   0.124870770236482   1.0000000
N2   N   0.277751784024466   0.388858592018658   0.124798134776795   1.0000000
N2   N   0.277779158450689   0.555543757958039   0.124912170256523   1.0000000
N2   N   0.611174137520284   0.388825862479715   0.123872264220579   1.0000000
N2   N   0.777793900001558   0.888921133336445   0.124889070066474   1.0000000
N2   N   0.944446115353065   0.388876736380075   0.124958956490935   1.0000000
N2   N   0.111105846699587   0.555545026732502   0.625129229763518   1.0000000
N2   N   0.277779158450689   0.055568733825986   0.625087829743478   1.0000000
N2   N   0.777777718395067   0.555555525864202   0.625353103490755   1.0000000
N2   N   0.611123263619925   0.055553884646935   0.625041043509065   1.0000000
N2   N   0.944444531958369   0.055555468041631   0.625051424115701   1.0000000
N2   N   0.056341481467463   0.111602348253932   0.375000000000000   1.0000000
N2   N   0.554275463748763   0.604645141879049   0.375000000000000   1.0000000
N2   N   0.388996039326699   0.111325411986741   0.375000000000000   1.0000000
N2   N   0.888674588013259   0.611003960673301   0.375000000000000   1.0000000
N2   N   0.721927533453133   0.111602348253932   0.375000000000000   1.0000000
N2   N   0.055546562067378   0.777757443809883   0.875000000000000   1.0000000
N2   N   0.388877548409169   0.777757443809883   0.875000000000000   1.0000000
N2   N   0.222246765643119   0.277790049488228   0.875000000000000   1.0000000
N2   N   0.722209950511773   0.777753234356880   0.875000000000000   1.0000000
N2   N   0.555567580153041   0.277783453778585   0.875000000000000   1.0000000
N2   N   0.888907085113832   0.277788567319915   0.875000000000000   1.0000000
N2   N   0.222222222222221   0.777777777777779   0.375000000000000   1.0000000
N2   N   0.056341481467463   0.278072466546867   0.375000000000000   1.0000000
N2   N   0.395354858120951   0.282963655203050   0.375000000000000   1.0000000
N2   N   0.555463197332821   0.775420381798257   0.375000000000000   1.0000000
N2   N   0.886623851132100   0.775420381798257   0.375000000000000   1.0000000
N2   N   0.720965276990510   0.279034723009490   0.375000000000000   1.0000000
N2   N   0.055547081562388   0.944452918437612   0.875000000000000   1.0000000
N2   N   0.388877548409169   0.944453437932621   0.875000000000000   1.0000000
N2   N   0.222220955478337   0.444447025184841   0.875000000000000   1.0000000
N2   N   0.555555555555557   0.444444444444443   0.875000000000000   1.0000000
N2   N   0.722211432680085   0.944451851127253   0.875000000000000   1.0000000
N2   N   0.888892736373169   0.444447025184841   0.875000000000000   1.0000000
N2   N   0.055492254350121   0.444317842033570   0.375000000000000   1.0000000
N2   N   0.222257376953346   0.944674315213417   0.375000000000000   1.0000000
N2   N   0.555682157966430   0.944507745649879   0.375000000000000   1.0000000
N2   N   0.395354858120951   0.445724536251237   0.375000000000000   1.0000000
N2   N   0.888397651746068   0.943658518532537   0.375000000000000   1.0000000
N2   N   0.717036344796950   0.445724536251237   0.375000000000000   1.0000000
N2   N   0.222242556190117   0.611122451590831   0.875000000000000   1.0000000
N2   N   0.055548148872747   0.111092914886168   0.875000000000000   1.0000000
N2   N   0.555567580153041   0.611117459707792   0.875000000000000   1.0000000
N2   N   0.388879601127834   0.111092535589011   0.875000000000000   1.0000000
N2   N   0.888907464410989   0.611120398872166   0.875000000000000   1.0000000
N2   N   0.055325684786583   0.610916395073265   0.375000000000000   1.0000000
N2   N   0.722211432680085   0.111092914886168   0.875000000000000   1.0000000
N2   N   0.224579618201743   0.113376148867900   0.375000000000000   1.0000000
N2   N   0.388996039326699   0.611003960673301   0.375000000000000   1.0000000
N2   N   0.717036344796950   0.604645141879049   0.375000000000000   1.0000000
N2   N   0.555463197332821   0.113376148867900   0.375000000000000   1.0000000
N2   N   0.388879601127834   0.611120398872166   0.875000000000000   1.0000000
N2   N   0.888888888888886   0.111111111111114   0.375000000000000   1.0000000
N2   N   0.222222222222221   0.777777777777779   0.875000000000000   1.0000000
N2   N   0.055548148872747   0.277788567319915   0.875000000000000   1.0000000
N2   N   0.388882540292209   0.277783453778585   0.875000000000000   1.0000000
N2   N   0.555552974815158   0.777779044521663   0.875000000000000   1.0000000
N2   N   0.888892736373169   0.777779044521663   0.875000000000000   1.0000000
N2   N   0.722209950511773   0.277790049488228   0.875000000000000   1.0000000
N2   N   0.055325684786583   0.777742623046654   0.375000000000000   1.0000000
N2   N   0.389083604926735   0.777742623046654   0.375000000000000   1.0000000
N2   N   0.224736112685644   0.279034723009490   0.375000000000000   1.0000000
N2   N   0.720965276990510   0.775263887314356   0.375000000000000   1.0000000
N2   N   0.554275463748763   0.282963655203050   0.375000000000000   1.0000000
N2   N   0.888397651746068   0.278072466546867   0.375000000000000   1.0000000
N2   N   0.055547081562388   0.444427496458104   0.875000000000000   1.0000000
N2   N   0.222242556190117   0.944453437932621   0.875000000000000   1.0000000
N2   N   0.555572503541897   0.944452918437612   0.875000000000000   1.0000000
N2   N   0.388882540292209   0.444432419846959   0.875000000000000   1.0000000
N2   N   0.888907085113832   0.944451851127253   0.875000000000000   1.0000000
N2   N   0.055492254350121   0.944507745649879   0.375000000000000   1.0000000
N2   N   0.722216546221415   0.444432419846959   0.875000000000000   1.0000000
N2   N   0.389083604926735   0.944674315213417   0.375000000000000   1.0000000
N2   N   0.224579618201743   0.444536802667179   0.375000000000000   1.0000000
N2   N   0.222257376953346   0.610916395073265   0.375000000000000   1.0000000
N2   N   0.721927533453133   0.943658518532537   0.375000000000000   1.0000000
N2   N   0.886623851132100   0.444536802667179   0.375000000000000   1.0000000
N2   N   0.055546562067378   0.611122451590831   0.875000000000000   1.0000000
N2   N   0.222220955478337   0.111107263626832   0.875000000000000   1.0000000
N2   N   0.722216546221415   0.611117459707792   0.875000000000000   1.0000000
N2   N   0.555552974815158   0.111107263626832   0.875000000000000   1.0000000
N2   N   0.888888888888886   0.111111111111114   0.875000000000000   1.0000000
B2   B   0.112637387931428   0.056636061465838   0.375000000000000   1.0000000
B2   B   0.601269869397230   0.535873072127788   0.375000000000000   1.0000000
B2   B   0.444469795237849   0.056254033205655   0.375000000000000   1.0000000
B2   B   0.943745966794345   0.555530204762151   0.375000000000000   1.0000000
B2   B   0.777301510553634   0.055317421943485   0.375000000000000   1.0000000
B2   B   0.110992509053426   0.722162921193377   0.875000000000000   1.0000000
B2   B   0.444350321527848   0.722149268171741   0.875000000000000   1.0000000
B2   B   0.277891151674666   0.222365819873978   0.875000000000000   1.0000000
B2   B   0.777634180126021   0.722108848325334   0.875000000000000   1.0000000
B2   B   0.611141334865983   0.222365819873978   0.875000000000000   1.0000000
B2   B   0.944504559777901   0.222342452889139   0.875000000000000   1.0000000
B2   B   0.277908730507275   0.722091269492725   0.375000000000000   1.0000000
B2   B   0.113167967245327   0.223250650289328   0.375000000000000   1.0000000
B2   B   0.444884080820553   0.223101494974443   0.375000000000000   1.0000000
B2   B   0.609764499140339   0.716571369325037   0.375000000000000   1.0000000
B2   B   0.943745966794345   0.721549095365529   0.375000000000000   1.0000000
B2   B   0.776749349710672   0.223250650289328   0.375000000000000   1.0000000
B2   B   0.111109761235624   0.888890238764376   0.875000000000000   1.0000000
B2   B   0.444447144195424   0.888890238764376   0.875000000000000   1.0000000
B2   B   0.277891151674666   0.388858665134017   0.875000000000000   1.0000000
B2   B   0.611124060048388   0.388875939951612   0.875000000000000   1.0000000
B2   B   0.777758606427396   0.888850546188121   0.875000000000000   1.0000000
B2   B   0.944486203691905   0.388849345349827   0.875000000000000   1.0000000
B2   B   0.112637387931428   0.389334659798919   0.375000000000000   1.0000000
B2   B   0.277908730507275   0.889150794347879   0.375000000000000   1.0000000
B2   B   0.610665340201081   0.887362612068572   0.375000000000000   1.0000000
B2   B   0.464126927872212   0.398730130602770   0.375000000000000   1.0000000
B2   B   0.943363938534162   0.887362612068572   0.375000000000000   1.0000000
B2   B   0.773473536851370   0.390235500859662   0.375000000000000   1.0000000
B2   B   0.277850731828258   0.555649678472152   0.875000000000000   1.0000000
B2   B   0.111029808324593   0.055513796308095   0.875000000000000   1.0000000
B2   B   0.611124060048388   0.555581453430105   0.875000000000000   1.0000000
B2   B   0.444350321527848   0.055534386689442   0.875000000000000   1.0000000
B2   B   0.944465613310558   0.555649678472152   0.875000000000000   1.0000000
B2   B   0.111078164072367   0.555489661478062   0.375000000000000   1.0000000
B2   B   0.777657547110861   0.055495440222098   0.875000000000000   1.0000000
B2   B   0.278450904634470   0.056254033205655   0.375000000000000   1.0000000
B2   B   0.444884080820553   0.555115919179446   0.375000000000000   1.0000000
B2   B   0.776898505025558   0.555115919179446   0.375000000000000   1.0000000
B2   B   0.610665340201081   0.056636061465838   0.375000000000000   1.0000000
B2   B   0.444469036972487   0.555530963027513   0.875000000000000   1.0000000
B2   B   0.944682578056515   0.055317421943485   0.375000000000000   1.0000000
B2   B   0.277837078806623   0.722162921193377   0.875000000000000   1.0000000
B2   B   0.111149453811879   0.222241393572604   0.875000000000000   1.0000000
B2   B   0.444469036972487   0.222271407278308   0.875000000000000   1.0000000
B2   B   0.611141334865983   0.722108848325334   0.875000000000000   1.0000000
B2   B   0.944465613310558   0.722149268171741   0.875000000000000   1.0000000
B2   B   0.777758606427396   0.222241393572604   0.875000000000000   1.0000000
B2   B   0.110849205652121   0.722091269492725   0.375000000000000   1.0000000
B2   B   0.444469795237849   0.721549095365529   0.375000000000000   1.0000000
B2   B   0.283428630674963   0.226526463148630   0.375000000000000   1.0000000
B2   B   0.773473536851370   0.716571369325037   0.375000000000000   1.0000000
B2   B   0.609764499140339   0.226526463148630   0.375000000000000   1.0000000
B2   B   0.944682578056515   0.222698489446366   0.375000000000000   1.0000000
B2   B   0.111029808324593   0.388849345349827   0.875000000000000   1.0000000
B2   B   0.277837078806623   0.889007490946574   0.875000000000000   1.0000000
B2   B   0.611150654650173   0.888970191675407   0.875000000000000   1.0000000
B2   B   0.444418546569895   0.388875939951612   0.875000000000000   1.0000000
B2   B   0.944486203691905   0.888970191675407   0.875000000000000   1.0000000
B2   B   0.111078164072367   0.888921835927633   0.375000000000000   1.0000000
B2   B   0.777634180126021   0.388858665134017   0.875000000000000   1.0000000
B2   B   0.444510338521938   0.888921835927633   0.375000000000000   1.0000000
B2   B   0.283428630674963   0.390235500859662   0.375000000000000   1.0000000
B2   B   0.278450904634470   0.555530204762151   0.375000000000000   1.0000000
B2   B   0.601269869397230   0.398730130602770   0.375000000000000   1.0000000
B2   B   0.776749349710672   0.886832032754673   0.375000000000000   1.0000000
B2   B   0.943363938534162   0.389334659798919   0.375000000000000   1.0000000
B2   B   0.111109761235624   0.555552855804576   0.875000000000000   1.0000000
B2   B   0.277850731828258   0.055534386689442   0.875000000000000   1.0000000
B2   B   0.777728592721691   0.555530963027513   0.875000000000000   1.0000000
B2   B   0.611150654650173   0.055513796308095   0.875000000000000   1.0000000
B2   B   0.944504559777901   0.055495440222098   0.875000000000000   1.0000000
B2   B   0.055551649378635   0.111073324828670   0.124992896191988   1.0000000
B2   B   0.555685287266858   0.610968685079292   0.124958970660607   1.0000000
B2   B   0.388967523634999   0.111268380603340   0.125040463770368   1.0000000
B2   B   0.888731619396659   0.611032476365001   0.125040463770368   1.0000000
B2   B   0.722188342116700   0.111073324828670   0.124992896191988   1.0000000
B2   B   0.055443382188774   0.777680386353929   0.625015288896152   1.0000000
B2   B   0.388903670831819   0.777680386353929   0.625015288896152   1.0000000
B2   B   0.222386661889039   0.277859997611187   0.625004252703449   1.0000000
B2   B   0.722140002388812   0.777613338110961   0.625004252703449   1.0000000
B2   B   0.555685287266858   0.278049935520901   0.625041029339393   1.0000000
B2   B   0.888926675171330   0.277811657883300   0.625007103808012   1.0000000
B2   B   0.222222222222221   0.777777777777779   0.124998276282708   1.0000000
B2   B   0.055551649378635   0.277811657883300   0.124992896191988   1.0000000
B2   B   0.389031314920708   0.278049935520901   0.124958970660607   1.0000000
B2   B   0.555591021630842   0.777695940335939   0.125043751163997   1.0000000
B2   B   0.888771585371761   0.777695940335939   0.125043751163997   1.0000000
B2   B   0.722140002388812   0.277859997611187   0.124995747296551   1.0000000
B2   B   0.055514100336722   0.944485899663278   0.624999138972376   1.0000000
B2   B   0.388903670831819   0.944556617811226   0.625015288896152   1.0000000
B2   B   0.222304059664061   0.444408978369159   0.624956248836003   1.0000000
B2   B   0.555555555555557   0.444444444444443   0.623085773249615   1.0000000
B2   B   0.722188342116700   0.944448350621366   0.625007103808012   1.0000000
B2   B   0.888771585371761   0.444408978369159   0.624956248836003   1.0000000
B2   B   0.055514100336722   0.444361534006772   0.125000861027625   1.0000000
B2   B   0.222319613646071   0.944556617811226   0.124984711103848   1.0000000
B2   B   0.555638465993229   0.944485899663278   0.125000861027625   1.0000000
B2   B   0.389031314920708   0.444314712733142   0.124958970660607   1.0000000
B2   B   0.888926675171330   0.944448350621366   0.124992896191988   1.0000000
B2   B   0.721950064479099   0.444314712733142   0.124958970660607   1.0000000
B2   B   0.222319613646071   0.611096329168181   0.625015288896152   1.0000000
B2   B   0.055551649378635   0.111073324828670   0.625007103808012   1.0000000
B2   B   0.555685287266858   0.610968685079292   0.625041029339393   1.0000000
B2   B   0.388967523634999   0.111268380603340   0.624959536229633   1.0000000
B2   B   0.888731619396659   0.611032476365001   0.624959536229633   1.0000000
B2   B   0.055443382188774   0.611096329168181   0.124984711103848   1.0000000
B2   B   0.722188342116700   0.111073324828670   0.625007103808012   1.0000000
B2   B   0.222304059664061   0.111228414628238   0.125043751163997   1.0000000
B2   B   0.388967523634999   0.611032476365001   0.125040463770368   1.0000000
B2   B   0.721950064479099   0.610968685079292   0.124958970660607   1.0000000
B2   B   0.555591021630842   0.111228414628238   0.125043751163997   1.0000000
B2   B   0.388967523634999   0.611032476365001   0.624959536229633   1.0000000
B2   B   0.888888888888886   0.111111111111114   0.124990994502280   1.0000000
B2   B   0.222222222222221   0.777777777777779   0.625001723717292   1.0000000
B2   B   0.055551649378635   0.277811657883300   0.625007103808012   1.0000000
B2   B   0.389031314920708   0.278049935520901   0.625041029339393   1.0000000
B2   B   0.555591021630842   0.777695940335939   0.624956248836003   1.0000000
B2   B   0.888771585371761   0.777695940335939   0.624956248836003   1.0000000
B2   B   0.722140002388812   0.277859997611187   0.625004252703449   1.0000000
B2   B   0.055443382188774   0.777680386353929   0.124984711103848   1.0000000
B2   B   0.388903670831819   0.777680386353929   0.124984711103848   1.0000000
B2   B   0.222386661889039   0.277859997611187   0.124995747296551   1.0000000
B2   B   0.722140002388812   0.777613338110961   0.124995747296551   1.0000000
B2   B   0.555685287266858   0.278049935520901   0.124958970660607   1.0000000
B2   B   0.888926675171330   0.277811657883300   0.124992896191988   1.0000000
B2   B   0.055514100336722   0.444361534006772   0.624999138972376   1.0000000
B2   B   0.222319613646071   0.944556617811226   0.625015288896152   1.0000000
B2   B   0.555638465993229   0.944485899663278   0.624999138972376   1.0000000
B2   B   0.389031314920708   0.444314712733142   0.625041029339393   1.0000000
B2   B   0.888926675171330   0.944448350621366   0.625007103808012   1.0000000
B2   B   0.055514100336722   0.944485899663278   0.125000861027625   1.0000000
B2   B   0.721950064479099   0.444314712733142   0.625041029339393   1.0000000
B2   B   0.388903670831819   0.944556617811226   0.124984711103848   1.0000000
B2   B   0.222304059664061   0.444408978369159   0.125043751163997   1.0000000
B2   B   0.222319613646071   0.611096329168181   0.124984711103848   1.0000000
B2   B   0.555555555555557   0.444444444444443   0.126914226750385   1.0000000
B2   B   0.722188342116700   0.944448350621366   0.124992896191988   1.0000000
B2   B   0.888771585371761   0.444408978369159   0.125043751163997   1.0000000
B2   B   0.055443382188774   0.611096329168181   0.625015288896152   1.0000000
B2   B   0.222304059664061   0.111228414628238   0.624956248836003   1.0000000
B2   B   0.721950064479099   0.610968685079292   0.625041029339393   1.0000000
B2   B   0.555591021630842   0.111228414628238   0.624956248836003   1.0000000
B2   B   0.888888888888886   0.111111111111114   0.625009005497720   1.0000000


