data_1
_audit_creation_method   'vasp2cif'
_cell_length_a    14.93631414619966
_cell_length_b    14.936314146199727
_cell_length_c    13.341276283792837
_cell_angle_alpha    90.0
_cell_angle_beta    90.0
_cell_angle_gamma    119.99999999999984

_symmetry_space_group_name_H-M    'P 1'
loop_
_atom_site_label
_atom_site_type_symbol
_atom_site_fract_x
_atom_site_fract_y
_atom_site_fract_z
_atom_site_occupancy
Sb2   Sb   0.555555555555557   0.444444444444443   0.375000000000000   1.0000000
N2   N   0.111073600542505   0.055550979987251   0.125856741611956   1.0000000
N2   N   0.611215838635521   0.555765010604818   0.122942506412090   1.0000000
N2   N   0.444458985866082   0.055572939329936   0.126511529551417   1.0000000
N2   N   0.944427060670054   0.555541014133022   0.126511529551417   1.0000000
N2   N   0.777791569381375   0.055562451357515   0.125018718643291   1.0000000
N2   N   0.111100170939444   0.722216752136065   0.623983992386861   1.0000000
N2   N   0.444458985866083   0.722219379870144   0.623488470448368   1.0000000
N2   N   0.277699706354457   0.222185032558059   0.624212676143439   1.0000000
N2   N   0.777814967441891   0.722300293645488   0.624212676143439   1.0000000
N2   N   0.611151992869809   0.222185032558059   0.624212676143439   1.0000000
N2   N   0.944437548642733   0.222208430618347   0.624981281356795   1.0000000
N2   N   0.277783247863403   0.722216752136065   0.126016007613136   1.0000000
N2   N   0.111055125166279   0.222194229249719   0.125538255747284   1.0000000
N2   N   0.444467545681562   0.222268424696264   0.126068472998618   1.0000000
N2   N   0.611151992869809   0.722300293645488   0.125787323856473   1.0000000
N2   N   0.944427060670054   0.722219379870145   0.126511529551418   1.0000000
N2   N   0.777805770749790   0.222194229249719   0.125538255747274   1.0000000
N2   N   0.111098447821481   0.888901552178479   0.623887173731370   1.0000000
N2   N   0.444469771023453   0.888901552178479   0.623887173731370   1.0000000
N2   N   0.277699706354405   0.388848007129883   0.624212676143439   1.0000000
N2   N   0.611215838635520   0.388784161364256   0.627057493587666   1.0000000
N2   N   0.777805770749790   0.888944874834062   0.624461744252807   1.0000000
N2   N   0.944449020012797   0.388855953888291   0.624143258387940   1.0000000
N2   N   0.111073600542505   0.388855953888291   0.125856741611956   1.0000000
N2   N   0.277783247863403   0.888899829060135   0.126016007613136   1.0000000
N2   N   0.611144046111839   0.888926399457385   0.125856741611956   1.0000000
N2   N   0.444234989394931   0.388784161364255   0.122942506412123   1.0000000
N2   N   0.944449020012797   0.888926399457385   0.125856741611956   1.0000000
N2   N   0.777814967441891   0.388848007129883   0.125787323856473   1.0000000
N2   N   0.277780620130288   0.555541014133022   0.623488470448581   1.0000000
N2   N   0.111073600542505   0.055550979987258   0.624143258387940   1.0000000
N2   N   0.611215838635521   0.555765010604818   0.627057493587667   1.0000000
N2   N   0.444458985866081   0.055572939329936   0.623488470448581   1.0000000
N2   N   0.944427060670054   0.555541014133022   0.623488470448579   1.0000000
N2   N   0.111098447821481   0.555530228976517   0.126112826268671   1.0000000
N2   N   0.777791569381375   0.055562451357512   0.624981281356795   1.0000000
N2   N   0.277780620130287   0.055572939329936   0.126511529551417   1.0000000
N2   N   0.444467545681562   0.555532454318662   0.126068472998618   1.0000000
N2   N   0.777731575303538   0.555532454318662   0.126068472998614   1.0000000
N2   N   0.611144046111839   0.055550979987252   0.125856741611956   1.0000000
N2   N   0.444467545681563   0.555532454318662   0.623931527001702   1.0000000
N2   N   0.944437548642733   0.055562451357515   0.125018718643290   1.0000000
N2   N   0.277783247863403   0.722216752136065   0.623983992386864   1.0000000
N2   N   0.111055125166285   0.222194229249719   0.624461744252804   1.0000000
N2   N   0.444467545681563   0.222268424696264   0.623931527001702   1.0000000
N2   N   0.611151992869809   0.722300293645488   0.624212676143439   1.0000000
N2   N   0.944427060670054   0.722219379870145   0.623488470448368   1.0000000
N2   N   0.777805770749790   0.222194229249719   0.624461744252804   1.0000000
N2   N   0.111100170939444   0.722216752136065   0.126016007613136   1.0000000
N2   N   0.444458985866081   0.722219379870145   0.126511529551418   1.0000000
N2   N   0.277699706354408   0.222185032558058   0.125787323856485   1.0000000
N2   N   0.777814967441891   0.722300293645488   0.125787323856473   1.0000000
N2   N   0.611151992869809   0.222185032558059   0.125787323856484   1.0000000
N2   N   0.944437548642733   0.222208430618347   0.125018718643291   1.0000000
N2   N   0.111073600542505   0.388855953888291   0.624143258387940   1.0000000
N2   N   0.277783247863403   0.888899829060135   0.623983992386864   1.0000000
N2   N   0.611144046111840   0.888926399457385   0.624143258387940   1.0000000
N2   N   0.444234989394959   0.388784161364256   0.627057493587662   1.0000000
N2   N   0.944449020012797   0.888926399457385   0.624143258387940   1.0000000
N2   N   0.111098447821481   0.888901552178479   0.126112826268671   1.0000000
N2   N   0.777814967441891   0.388848007129883   0.624212676143439   1.0000000
N2   N   0.444469771023453   0.888901552178479   0.126112826268671   1.0000000
N2   N   0.277699706354407   0.388848007129883   0.125787323856473   1.0000000
N2   N   0.277780620130289   0.555541014133022   0.126511529551417   1.0000000
N2   N   0.611215838635518   0.388784161364255   0.122942506412091   1.0000000
N2   N   0.777805770749790   0.888944874834062   0.125538255747274   1.0000000
N2   N   0.944449020012797   0.388855953888291   0.125856741611956   1.0000000
N2   N   0.111098447821481   0.555530228976517   0.623887173731370   1.0000000
N2   N   0.277780620130288   0.055572939329935   0.623488470448368   1.0000000
N2   N   0.777731575303541   0.555532454318662   0.623931527001702   1.0000000
N2   N   0.611144046111839   0.055550979987252   0.624143258387940   1.0000000
N2   N   0.944437548642733   0.055562451357512   0.624981281356795   1.0000000
N2   N   0.054059721736206   0.110104800904344   0.375000000000000   1.0000000
N2   N   0.555692689810533   0.623861778545751   0.375000000000000   1.0000000
N2   N   0.387083939479312   0.107501212291570   0.375000000000000   1.0000000
N2   N   0.892498787708035   0.612916060521235   0.375000000000000   1.0000000
N2   N   0.722711745834723   0.110104800904316   0.375000000000000   1.0000000
N2   N   0.055558201626851   0.777779151635349   0.875000000000000   1.0000000
N2   N   0.388887616675124   0.777779151635350   0.875000000000000   1.0000000
N2   N   0.222243105834051   0.277788219583661   0.875000000000000   1.0000000
N2   N   0.722211780416306   0.777756894166012   0.875000000000000   1.0000000
N2   N   0.555532940915087   0.277764204805413   0.875000000000000   1.0000000
N2   N   0.888887013029411   0.277786613513839   0.875000000000000   1.0000000
N2   N   0.222222222222221   0.777777777777779   0.375000000000000   1.0000000
N2   N   0.054059721736206   0.277288254165178   0.375000000000000   1.0000000
N2   N   0.376138221454460   0.265164244598120   0.375000000000000   1.0000000
N2   N   0.554951190954497   0.782861187790034   0.375000000000000   1.0000000
N2   N   0.894576663502485   0.782861187790036   0.375000000000000   1.0000000
N2   N   0.724627078648249   0.275372921352035   0.375000000000000   1.0000000
N2   N   0.055561735013772   0.944438264986413   0.875000000000000   1.0000000
N2   N   0.388887616675123   0.944441798372985   0.875000000000000   1.0000000
N2   N   0.222230054781469   0.444454295957849   0.875000000000000   1.0000000
N2   N   0.555555555555557   0.444444444444443   0.875000000000000   1.0000000
N2   N   0.722213386486240   0.944433732848947   0.875000000000000   1.0000000
N2   N   0.888890907843129   0.444454295957850   0.875000000000000   1.0000000
N2   N   0.055821103256524   0.444975539846363   0.375000000000000   1.0000000
N2   N   0.221662368805531   0.942987353686161   0.375000000000000   1.0000000
N2   N   0.555024460153913   0.944178896743127   0.375000000000000   1.0000000
N2   N   0.376138221454464   0.444307310189881   0.375000000000000   1.0000000
N2   N   0.889895199095800   0.945940278264181   0.375000000000000   1.0000000
N2   N   0.734835755401564   0.444307310189902   0.375000000000000   1.0000000
N2   N   0.222220848364700   0.611112383325293   0.875000000000000   1.0000000
N2   N   0.055566267151095   0.111112986970632   0.875000000000000   1.0000000
N2   N   0.555532940915087   0.611102069443274   0.875000000000000   1.0000000
N2   N   0.388884841959305   0.111103017252112   0.875000000000000   1.0000000
N2   N   0.888896982748050   0.611115158040426   0.875000000000000   1.0000000
N2   N   0.057012646314010   0.612008348453054   0.375000000000000   1.0000000
N2   N   0.722213386486240   0.111112986970632   0.875000000000000   1.0000000
N2   N   0.217138812210106   0.105423336497894   0.375000000000000   1.0000000
N2   N   0.387083939479312   0.612916060521235   0.375000000000000   1.0000000
N2   N   0.734835755401565   0.623861778545749   0.375000000000000   1.0000000
N2   N   0.554951190954499   0.105423336497893   0.375000000000000   1.0000000
N2   N   0.388884841959305   0.611115158040427   0.875000000000000   1.0000000
N2   N   0.888888888888886   0.111111111111114   0.375000000000000   1.0000000
N2   N   0.222222222222221   0.777777777777779   0.875000000000000   1.0000000
N2   N   0.055566267151094   0.277786613513839   0.875000000000000   1.0000000
N2   N   0.388897930557068   0.277764204805412   0.875000000000000   1.0000000
N2   N   0.555545704041809   0.777769945218709   0.875000000000000   1.0000000
N2   N   0.888890907843130   0.777769945218709   0.875000000000000   1.0000000
N2   N   0.722211780416306   0.277788219583661   0.875000000000000   1.0000000
N2   N   0.057012646314011   0.778337631194591   0.375000000000000   1.0000000
N2   N   0.387991651547169   0.778337631194591   0.375000000000000   1.0000000
N2   N   0.217412509370410   0.275372921352036   0.375000000000000   1.0000000
N2   N   0.724627078648255   0.782587490629265   0.375000000000000   1.0000000
N2   N   0.555692689810530   0.265164244598119   0.375000000000000   1.0000000
N2   N   0.889895199095800   0.277288254165178   0.375000000000000   1.0000000
N2   N   0.055561735013772   0.444456803360894   0.875000000000000   1.0000000
N2   N   0.222220848364700   0.944441798372986   0.875000000000000   1.0000000
N2   N   0.555543196639416   0.944438264986413   0.875000000000000   1.0000000
N2   N   0.388897930557068   0.444467059085066   0.875000000000000   1.0000000
N2   N   0.888887013029411   0.944433732848947   0.875000000000000   1.0000000
N2   N   0.055821103256524   0.944178896743127   0.375000000000000   1.0000000
N2   N   0.722235795194876   0.444467059085066   0.875000000000000   1.0000000
N2   N   0.387991651547173   0.942987353686159   0.375000000000000   1.0000000
N2   N   0.217138812210103   0.445048809045401   0.375000000000000   1.0000000
N2   N   0.221662368805531   0.612008348453054   0.375000000000000   1.0000000
N2   N   0.722711745834720   0.945940278264181   0.375000000000000   1.0000000
N2   N   0.894576663502393   0.445048809045401   0.375000000000000   1.0000000
N2   N   0.055558201626851   0.611112383325293   0.875000000000000   1.0000000
N2   N   0.222230054781488   0.111109092157052   0.875000000000000   1.0000000
N2   N   0.722235795194874   0.611102069443274   0.875000000000000   1.0000000
N2   N   0.555545704041809   0.111109092157052   0.875000000000000   1.0000000
N2   N   0.888888888888886   0.111111111111114   0.875000000000000   1.0000000
B2   B   0.108158778134705   0.053256778305282   0.375000000000000   1.0000000
B2   B   0.628258904576214   0.589851142486429   0.375000000000000   1.0000000
B2   B   0.443625102253389   0.052995695762166   0.375000000000000   1.0000000
B2   B   0.947004304237843   0.556374897746767   0.375000000000000   1.0000000
B2   B   0.778384353879311   0.055858843606287   0.375000000000000   1.0000000
B2   B   0.111078087044396   0.722205710188637   0.875000000000000   1.0000000
B2   B   0.444414985734807   0.722189778428418   0.875000000000000   1.0000000
B2   B   0.277850414170286   0.222281152818642   0.875000000000000   1.0000000
B2   B   0.777718847181968   0.722149585829211   0.875000000000000   1.0000000
B2   B   0.611097405314678   0.222281152818642   0.875000000000000   1.0000000
B2   B   0.944464133633957   0.222261600601436   0.875000000000000   1.0000000
B2   B   0.277416097355142   0.722583902644709   0.375000000000000   1.0000000
B2   B   0.107964076025237   0.220648704679293   0.375000000000000   1.0000000
B2   B   0.442169064708368   0.217671462749981   0.375000000000000   1.0000000
B2   B   0.612546631384429   0.731882448775879   0.375000000000000   1.0000000
B2   B   0.947004304237842   0.723962739823717   0.375000000000000   1.0000000
B2   B   0.779351295320684   0.220648704679293   0.375000000000000   1.0000000
B2   B   0.111113425994221   0.888886574005833   0.875000000000000   1.0000000
B2   B   0.444439814678132   0.888886574005833   0.875000000000000   1.0000000
B2   B   0.277850414170289   0.388902594685135   0.875000000000000   1.0000000
B2   B   0.611094098654265   0.388905901345597   0.875000000000000   1.0000000
B2   B   0.777757937488302   0.888849208309184   0.875000000000000   1.0000000
B2   B   0.944449097055679   0.388890026123140   0.875000000000000   1.0000000
B2   B   0.108158778134705   0.388235333162657   0.375000000000000   1.0000000
B2   B   0.277416097355142   0.888165528043614   0.375000000000000   1.0000000
B2   B   0.611764666837253   0.891841221865612   0.375000000000000   1.0000000
B2   B   0.410148857513665   0.371741095423452   0.375000000000000   1.0000000
B2   B   0.946743221694455   0.891841221865528   0.375000000000000   1.0000000
B2   B   0.786002484057922   0.387453368615439   0.375000000000000   1.0000000
B2   B   0.277810221571160   0.555585014265426   0.875000000000000   1.0000000
B2   B   0.111107595734075   0.055550902944185   0.875000000000000   1.0000000
B2   B   0.611094098654265   0.555521530642136   0.875000000000000   1.0000000
B2   B   0.444414985734807   0.055558540639323   0.875000000000000   1.0000000
B2   B   0.944441459360847   0.555585014265426   0.875000000000000   1.0000000
B2   B   0.111327611258225   0.555988555849694   0.375000000000000   1.0000000
B2   B   0.777738399398731   0.055535866365926   0.875000000000000   1.0000000
B2   B   0.276037260175647   0.052995695762167   0.375000000000000   1.0000000
B2   B   0.442169064708399   0.557830935292098   0.375000000000000   1.0000000
B2   B   0.782328537249926   0.557830935292144   0.375000000000000   1.0000000
B2   B   0.611764666837252   0.053256778305281   0.375000000000000   1.0000000
B2   B   0.444460861097903   0.555539138902044   0.875000000000000   1.0000000
B2   B   0.944141156393695   0.055858843606287   0.375000000000000   1.0000000
B2   B   0.277794289810920   0.722205710188637   0.875000000000000   1.0000000
B2   B   0.111150791691023   0.222242062512077   0.875000000000000   1.0000000
B2   B   0.444460861097903   0.222255055528696   0.875000000000000   1.0000000
B2   B   0.611097405314680   0.722149585829211   0.875000000000000   1.0000000
B2   B   0.944441459360847   0.722189778428418   0.875000000000000   1.0000000
B2   B   0.777757937488302   0.222242062512078   0.875000000000000   1.0000000
B2   B   0.111834471956277   0.722583902644710   0.375000000000000   1.0000000
B2   B   0.443625102253387   0.723962739823717   0.375000000000000   1.0000000
B2   B   0.268117551224147   0.213997515942146   0.375000000000000   1.0000000
B2   B   0.786002484057922   0.731882448775880   0.375000000000000   1.0000000
B2   B   0.612546631384432   0.213997515942146   0.375000000000000   1.0000000
B2   B   0.944141156393694   0.221615646120597   0.375000000000000   1.0000000
B2   B   0.111107595734074   0.388890026123148   0.875000000000000   1.0000000
B2   B   0.277794289810920   0.888921912955169   0.875000000000000   1.0000000
B2   B   0.611109973876840   0.888892404266055   0.875000000000000   1.0000000
B2   B   0.444478469357561   0.388905901345597   0.875000000000000   1.0000000
B2   B   0.944449097055679   0.888892404266055   0.875000000000000   1.0000000
B2   B   0.111327611258224   0.888672388741420   0.375000000000000   1.0000000
B2   B   0.777718847181968   0.388902594685135   0.875000000000000   1.0000000
B2   B   0.444011444150053   0.888672388741422   0.375000000000000   1.0000000
B2   B   0.268117551224149   0.387453368615442   0.375000000000000   1.0000000
B2   B   0.276037260175649   0.556374897746767   0.375000000000000   1.0000000
B2   B   0.628258904576217   0.371741095423449   0.375000000000000   1.0000000
B2   B   0.779351295320682   0.892035923974833   0.375000000000000   1.0000000
B2   B   0.946743221694454   0.388235333162657   0.375000000000000   1.0000000
B2   B   0.111113425994221   0.555560185321804   0.875000000000000   1.0000000
B2   B   0.277810221571160   0.055558540639323   0.875000000000000   1.0000000
B2   B   0.777744944470858   0.555539138902044   0.875000000000000   1.0000000
B2   B   0.611109973876840   0.055550902944185   0.875000000000000   1.0000000
B2   B   0.944464133633957   0.055535866365926   0.875000000000000   1.0000000
B2   B   0.055518531857152   0.111076196891316   0.125518671768342   1.0000000
B2   B   0.555727234602954   0.611092608085349   0.125026828781028   1.0000000
B2   B   0.388932951660238   0.111199236654141   0.126629681947145   1.0000000
B2   B   0.888800763346181   0.611067048339619   0.126629681947145   1.0000000
B2   B   0.722224331700780   0.111076196891316   0.125518671768342   1.0000000
B2   B   0.055485944546555   0.777724871425462   0.623699083680616   1.0000000
B2   B   0.388905593546079   0.777724871425462   0.623699083680616   1.0000000
B2   B   0.222267927197037   0.277800630265102   0.624241992884675   1.0000000
B2   B   0.722199369734963   0.777732072803134   0.624241992884675   1.0000000
B2   B   0.555727234602954   0.277967959850675   0.624973171218751   1.0000000
B2   B   0.888923803108323   0.277775668299048   0.624481328231668   1.0000000
B2   B   0.222222222222221   0.777777777777779   0.125980912492140   1.0000000
B2   B   0.055518531857151   0.277775668299049   0.125518671768342   1.0000000
B2   B   0.388907391914822   0.277967959850675   0.125026828781028   1.0000000
B2   B   0.555597633639094   0.777765858724012   0.126198626732131   1.0000000
B2   B   0.888834891751890   0.777765858724012   0.126198626732133   1.0000000
B2   B   0.722199369734963   0.277800630265101   0.125758007115402   1.0000000
B2   B   0.055510264401374   0.944489735599169   0.623983981616156   1.0000000
B2   B   0.388905593546079   0.944514055453323   0.623699083680616   1.0000000
B2   B   0.222234141276168   0.444402366361039   0.623801373268179   1.0000000
B2   B   0.555555555555557   0.444444444444443   0.624795929017146   1.0000000
B2   B   0.722224331700780   0.944481468142587   0.624481328231668   1.0000000
B2   B   0.888834891751889   0.444402366361044   0.623801373268179   1.0000000
B2   B   0.055510264401374   0.444353862136078   0.126016018384008   1.0000000
B2   B   0.222275128574087   0.944514055453323   0.126300916319252   1.0000000
B2   B   0.555646137863709   0.944489735599169   0.126016018384008   1.0000000
B2   B   0.388907391914822   0.444272765397154   0.125026828781028   1.0000000
B2   B   0.888923803108323   0.944481468142587   0.125518671768342   1.0000000
B2   B   0.722032040149660   0.444272765397154   0.125026828781037   1.0000000
B2   B   0.222275128574086   0.611094406453867   0.623699083680616   1.0000000
B2   B   0.055518531857151   0.111076196891317   0.624481328231668   1.0000000
B2   B   0.555727234602954   0.611092608085349   0.624973171218751   1.0000000
B2   B   0.388932951660238   0.111199236654141   0.623370318053022   1.0000000
B2   B   0.888800763346180   0.611067048339619   0.623370318053022   1.0000000
B2   B   0.055485944546555   0.611094406453867   0.126300916319252   1.0000000
B2   B   0.722224331700780   0.111076196891317   0.624481328231668   1.0000000
B2   B   0.222234141276168   0.111165108248460   0.126198626732131   1.0000000
B2   B   0.388932951660238   0.611067048339619   0.126629681947047   1.0000000
B2   B   0.722032040149660   0.611092608085349   0.125026828781032   1.0000000
B2   B   0.555597633639094   0.111165108248464   0.126198626732133   1.0000000
B2   B   0.388932951660237   0.611067048339618   0.623370318053022   1.0000000
B2   B   0.888888888888886   0.111111111111114   0.125003686544867   1.0000000
B2   B   0.222222222222221   0.777777777777779   0.624019087508356   1.0000000
B2   B   0.055518531857151   0.277775668299048   0.624481328231668   1.0000000
B2   B   0.388907391914821   0.277967959850675   0.624973171218751   1.0000000
B2   B   0.555597633639094   0.777765858724012   0.623801373268179   1.0000000
B2   B   0.888834891751890   0.777765858724013   0.623801373268179   1.0000000
B2   B   0.722199369734963   0.277800630265102   0.624241992884675   1.0000000
B2   B   0.055485944546555   0.777724871425462   0.126300916319252   1.0000000
B2   B   0.388905593546079   0.777724871425462   0.126300916319252   1.0000000
B2   B   0.222267927197037   0.277800630265102   0.125758007115402   1.0000000
B2   B   0.722199369734963   0.777732072803135   0.125758007115402   1.0000000
B2   B   0.555727234602954   0.277967959850675   0.125026828781032   1.0000000
B2   B   0.888923803108313   0.277775668299048   0.125518671768342   1.0000000
B2   B   0.055510264401372   0.444353862136078   0.623983981616156   1.0000000
B2   B   0.222275128574087   0.944514055453323   0.623699083680616   1.0000000
B2   B   0.555646137863709   0.944489735599169   0.623983981616156   1.0000000
B2   B   0.388907391914822   0.444272765397154   0.624973171218751   1.0000000
B2   B   0.888923803108323   0.944481468142587   0.624481328231668   1.0000000
B2   B   0.055510264401372   0.944489735599169   0.126016018384008   1.0000000
B2   B   0.722032040149660   0.444272765397179   0.624973171218751   1.0000000
B2   B   0.388905593546079   0.944514055453323   0.126300916319252   1.0000000
B2   B   0.222234141276168   0.444402366361039   0.126198626732131   1.0000000
B2   B   0.222275128574087   0.611094406453867   0.126300916319252   1.0000000
B2   B   0.555555555555557   0.444444444444443   0.125204070982474   1.0000000
B2   B   0.722224331700780   0.944481468142587   0.125518671768342   1.0000000
B2   B   0.888834891751890   0.444402366361039   0.126198626732131   1.0000000
B2   B   0.055485944546555   0.611094406453867   0.623699083680616   1.0000000
B2   B   0.222234141276168   0.111165108248460   0.623801373268189   1.0000000
B2   B   0.722032040149660   0.611092608085349   0.624973171218751   1.0000000
B2   B   0.555597633639092   0.111165108248460   0.623801373268179   1.0000000
B2   B   0.888888888888886   0.111111111111114   0.624996313455276   1.0000000


