data_1
_audit_creation_method   'vasp2cif'
_cell_length_a    14.93631414619966
_cell_length_b    14.936314146199727
_cell_length_c    13.341276283792837
_cell_angle_alpha    90.0
_cell_angle_beta    90.0
_cell_angle_gamma    119.99999999999984

_symmetry_space_group_name_H-M    'P 1'
loop_
_atom_site_label
_atom_site_type_symbol
_atom_site_fract_x
_atom_site_fract_y
_atom_site_fract_z
_atom_site_occupancy
Sb2   Sb   0.496065439091161   0.414699386212244   0.375000000000000   1.0000000
N2   N   0.111757996983554   0.055870363852988   0.125027918434553   1.0000000
N2   N   0.611824487928377   0.555995466763614   0.126888091386629   1.0000000
N2   N   0.445041192541657   0.055828826620214   0.124918035323825   1.0000000
N2   N   0.945050399111601   0.555858114128590   0.125025603477639   1.0000000
N2   N   0.778409594476627   0.055871463904982   0.124864693100362   1.0000000
N2   N   0.111700298768928   0.722516816051125   0.624854634723516   1.0000000
N2   N   0.445041192541657   0.722545699254780   0.625081964676175   1.0000000
N2   N   0.278470111042901   0.222542111082062   0.622521600652190   1.0000000
N2   N   0.778427219709449   0.722573701293281   0.625141851012952   1.0000000
N2   N   0.611726881278778   0.222486609901609   0.625017504808775   1.0000000
N2   N   0.945104702811664   0.222551549203953   0.625117446255174   1.0000000
N2   N   0.278362149629328   0.722521198666823   0.124988441522943   1.0000000
N2   N   0.111825444544728   0.222579388939026   0.125490535002468   1.0000000
N2   N   0.445085434983364   0.222514219141498   0.127349281591752   1.0000000
N2   N   0.611726881278778   0.722573604710510   0.124982495191224   1.0000000
N2   N   0.945050399111601   0.722525618316345   0.125025603477639   1.0000000
N2   N   0.778405164510846   0.222522023054703   0.124718915097090   1.0000000
N2   N   0.111711352988144   0.889180885981837   0.624997815545875   1.0000000
N2   N   0.445026787444785   0.889180060389059   0.625251660262724   1.0000000
N2   N   0.278470111042901   0.389261333294170   0.622521600652190   1.0000000
N2   N   0.611824487928377   0.389162354498092   0.623111908613369   1.0000000
N2   N   0.778405164510846   0.889216474789479   0.625281084902916   1.0000000
N2   N   0.945079066611503   0.389199131479653   0.625209930351484   1.0000000
N2   N   0.111757996983554   0.389220966463895   0.125027918434553   1.0000000
N2   N   0.278362149629328   0.889174284295835   0.124988441522943   1.0000000
N2   N   0.611715214858153   0.889208541772191   0.124683782217410   1.0000000
N2   N   0.445281028764742   0.389307181049036   0.134789483064088   1.0000000
N2   N   0.945079066611503   0.889213268465178   0.124790069648519   1.0000000
N2   N   0.778427219709449   0.389186851749496   0.124858148987049   1.0000000
N2   N   0.278393022266424   0.555880866731965   0.624546322171363   1.0000000
N2   N   0.111757996983554   0.055870363852988   0.624972081565446   1.0000000
N2   N   0.611824487928377   0.555995466763614   0.623111908613369   1.0000000
N2   N   0.445041192541657   0.055828826620214   0.625081964676175   1.0000000
N2   N   0.945050399111601   0.555858114128590   0.624974396522362   1.0000000
N2   N   0.111711352988144   0.555863800339641   0.125002184454126   1.0000000
N2   N   0.778409594476627   0.055871463904982   0.625135306899646   1.0000000
N2   N   0.278393022266424   0.055845488867796   0.125453677828634   1.0000000
N2   N   0.445085434983364   0.555904549175201   0.127349281591752   1.0000000
N2   N   0.778390680892277   0.555862007112815   0.125356594721158   1.0000000
N2   N   0.611715214858153   0.055840006419291   0.124683782217410   1.0000000
N2   N   0.445085434983364   0.555904549175201   0.622650718408248   1.0000000
N2   N   0.945104702811664   0.055886486941042   0.124882553744826   1.0000000
N2   N   0.278362149629328   0.722521198666823   0.625011558477057   1.0000000
N2   N   0.111825444544728   0.222579388939026   0.624509464997532   1.0000000
N2   N   0.445085434983364   0.222514219141498   0.622650718408248   1.0000000
N2   N   0.611726881278778   0.722573604710510   0.625017504808775   1.0000000
N2   N   0.945050399111601   0.722525618316345   0.624974396522362   1.0000000
N2   N   0.778405164510846   0.222522023054703   0.625281084902916   1.0000000
N2   N   0.111700298768928   0.722516816051125   0.125145365276485   1.0000000
N2   N   0.445041192541657   0.722545699254780   0.124918035323825   1.0000000
N2   N   0.278470111042901   0.222542111082062   0.127478399347807   1.0000000
N2   N   0.778427219709449   0.722573701293281   0.124858148987049   1.0000000
N2   N   0.611726881278778   0.222486609901609   0.124982495191224   1.0000000
N2   N   0.945104702811664   0.222551549203953   0.124882553744826   1.0000000
N2   N   0.111757996983554   0.389220966463895   0.624972081565446   1.0000000
N2   N   0.278362149629328   0.889174284295835   0.625011558477057   1.0000000
N2   N   0.611715214858153   0.889208541772191   0.625316217782584   1.0000000
N2   N   0.445281028764742   0.389307181049036   0.615210516935911   1.0000000
N2   N   0.945079066611503   0.889213268465178   0.625209930351484   1.0000000
N2   N   0.111711352988144   0.889180885981837   0.125002184454126   1.0000000
N2   N   0.778427219709449   0.389186851749496   0.625141851012952   1.0000000
N2   N   0.445026787444785   0.889180060389059   0.124748339737275   1.0000000
N2   N   0.278470111042901   0.389261333294170   0.127478399347807   1.0000000
N2   N   0.278393022266424   0.555880866731965   0.125453677828634   1.0000000
N2   N   0.611824487928377   0.389162354498092   0.126888091386629   1.0000000
N2   N   0.778405164510846   0.889216474789479   0.124718915097090   1.0000000
N2   N   0.945079066611503   0.389199131479653   0.124790069648519   1.0000000
N2   N   0.111711352988144   0.555863800339641   0.624997815545875   1.0000000
N2   N   0.278393022266424   0.055845488867796   0.624546322171363   1.0000000
N2   N   0.778390680892277   0.555862007112815   0.624643405278839   1.0000000
N2   N   0.611715214858153   0.055840006419291   0.625316217782584   1.0000000
N2   N   0.945104702811664   0.055886486941042   0.625117446255174   1.0000000
N2   N   0.057674336549915   0.112373343423475   0.375000000000000   1.0000000
N2   N   0.554822264989404   0.623913032771194   0.375000000000000   1.0000000
N2   N   0.386343377174964   0.103289871604369   0.375000000000000   1.0000000
N2   N   0.883190412812703   0.608261873073025   0.375000000000000   1.0000000
N2   N   0.723515788938718   0.110448735362636   0.375000000000000   1.0000000
N2   N   0.055834303323152   0.777920537345194   0.875000000000000   1.0000000
N2   N   0.389181350868654   0.777920263911752   0.875000000000000   1.0000000
N2   N   0.222509745052175   0.277921539192755   0.875000000000000   1.0000000
N2   N   0.722503244363219   0.777921199071640   0.875000000000000   1.0000000
N2   N   0.555830409587988   0.277918610844260   0.875000000000000   1.0000000
N2   N   0.889174474513964   0.277917197753189   0.875000000000000   1.0000000
N2   N   0.218772078818319   0.776052706075826   0.375000000000000   1.0000000
N2   N   0.057674336549915   0.278634326459782   0.375000000000000   1.0000000
N2   N   0.388694740206266   0.267469015963357   0.375000000000000   1.0000000
N2   N   0.554936878592678   0.783291720194176   0.375000000000000   1.0000000
N2   N   0.887453585254448   0.777995976095645   0.375000000000000   1.0000000
N2   N   0.722984093392517   0.274699294578404   0.375000000000000   1.0000000
N2   N   0.055838710506677   0.944591967746594   0.875000000000000   1.0000000
N2   N   0.389181350868654   0.944594420290240   0.875000000000000   1.0000000
N2   N   0.222508862570343   0.444576530698264   0.875000000000000   1.0000000
N2   N   0.555811442477993   0.444572387905657   0.875000000000000   1.0000000
N2   N   0.722508865086259   0.944590196294672   0.875000000000000   1.0000000
N2   N   0.889168859273575   0.444579521943573   0.875000000000000   1.0000000
N2   N   0.054737939900245   0.444267802272842   0.375000000000000   1.0000000
N2   N   0.219220390563038   0.941292334590978   0.375000000000000   1.0000000
N2   N   0.554972746344622   0.944153039838974   0.375000000000000   1.0000000
N2   N   0.388694740206266   0.454559057576242   0.375000000000000   1.0000000
N2   N   0.890327527901635   0.946205073184664   0.375000000000000   1.0000000
N2   N   0.718804167891761   0.439486003253582   0.375000000000000   1.0000000
N2   N   0.222511251573208   0.611245231086880   0.875000000000000   1.0000000
N2   N   0.055839431946592   0.111256115507902   0.875000000000000   1.0000000
N2   N   0.555830409587988   0.611245132077070   0.875000000000000   1.0000000
N2   N   0.389182080219106   0.111272397586872   0.875000000000000   1.0000000
N2   N   0.889157961550893   0.611245647442113   0.875000000000000   1.0000000
N2   N   0.051746511125822   0.609619598222003   0.375000000000000   1.0000000
N2   N   0.722508865086259   0.111252002124924   0.875000000000000   1.0000000
N2   N   0.221815716594590   0.109246972855896   0.375000000000000   1.0000000
N2   N   0.386343377174964   0.616386838903938   0.375000000000000   1.0000000
N2   N   0.718804167891761   0.612651497971517   0.375000000000000   1.0000000
N2   N   0.554936878592678   0.104978491731835   0.375000000000000   1.0000000
N2   N   0.389182080219106   0.611243015965577   0.875000000000000   1.0000000
N2   N   0.891004515602208   0.112168924467777   0.375000000000000   1.0000000
N2   N   0.222510045533215   0.777921689433280   0.875000000000000   1.0000000
N2   N   0.055839431946592   0.277916649772025   0.875000000000000   1.0000000
N2   N   0.389175546687017   0.277936103850755   0.875000000000000   1.0000000
N2   N   0.555842125321211   0.777921715175006   0.875000000000000   1.0000000
N2   N   0.889168859273575   0.777922670663340   0.875000000000000   1.0000000
N2   N   0.722503244363219   0.277915378624917   0.875000000000000   1.0000000
N2   N   0.051746511125822   0.775460246237154   0.375000000000000   1.0000000
N2   N   0.386450373559048   0.778656988501846   0.375000000000000   1.0000000
N2   N   0.225908508783790   0.279620921058563   0.375000000000000   1.0000000
N2   N   0.722984093392517   0.781618132147453   0.375000000000000   1.0000000
N2   N   0.554822264989404   0.264242565551536   0.375000000000000   1.0000000
N2   N   0.890327527901635   0.277455788050316   0.375000000000000   1.0000000
N2   N   0.055838710506677   0.444580076093412   0.875000000000000   1.0000000
N2   N   0.222511251573208   0.944599353819660   0.875000000000000   1.0000000
N2   N   0.555843500662236   0.944588416997787   0.875000000000000   1.0000000
N2   N   0.389175546687017   0.444572776169598   0.875000000000000   1.0000000
N2   N   0.889174474513964   0.944590610094110   0.875000000000000   1.0000000
N2   N   0.054737939900245   0.943803470960738   0.375000000000000   1.0000000
N2   N   0.722490770209189   0.444576627154044   0.875000000000000   1.0000000
N2   N   0.386450373559048   0.941126718390537   0.375000000000000   1.0000000
N2   N   0.221815716594590   0.445902077072030   0.375000000000000   1.0000000
N2   N   0.219220390563038   0.611261389305396   0.375000000000000   1.0000000
N2   N   0.723515788938718   0.946400386909419   0.375000000000000   1.0000000
N2   N   0.887453585254448   0.442790942492138   0.375000000000000   1.0000000
N2   N   0.055834303323152   0.611247099311297   0.875000000000000   1.0000000
N2   N   0.222508862570343   0.111265665205416   0.875000000000000   1.0000000
N2   N   0.722490770209189   0.611247476388479   0.875000000000000   1.0000000
N2   N   0.555842125321211   0.111253743479540   0.875000000000000   1.0000000
N2   N   0.889175989474536   0.111254661403939   0.875000000000000   1.0000000
B2   B   0.111010780707767   0.054845946312306   0.375000000000000   1.0000000
B2   B   0.611128612781190   0.573855615641100   0.375000000000000   1.0000000
B2   B   0.443531753683751   0.050235076125428   0.375000000000000   1.0000000
B2   B   0.940804488720641   0.553800998226491   0.375000000000000   1.0000000
B2   B   0.780078293344864   0.056705813339095   0.375000000000000   1.0000000
B2   B   0.111400835416859   0.722367084375093   0.875000000000000   1.0000000
B2   B   0.444735611952667   0.722395481798820   0.875000000000000   1.0000000
B2   B   0.277998796204516   0.222324204955838   0.875000000000000   1.0000000
B2   B   0.778092431012036   0.722418065196917   0.875000000000000   1.0000000
B2   B   0.611415791142639   0.222324346922806   0.875000000000000   1.0000000
B2   B   0.944720307751768   0.222351537916384   0.875000000000000   1.0000000
B2   B   0.275137991401845   0.722014138789734   0.375000000000000   1.0000000
B2   B   0.113788092543061   0.223560712938191   0.375000000000000   1.0000000
B2   B   0.442360357217919   0.211083554956352   0.375000000000000   1.0000000
B2   B   0.612664900551468   0.732622981657572   0.375000000000000   1.0000000
B2   B   0.940804488720641   0.720336823827499   0.375000000000000   1.0000000
B2   B   0.779798129210820   0.220861032465436   0.375000000000000   1.0000000
B2   B   0.111391502298455   0.889033537501742   0.875000000000000   1.0000000
B2   B   0.444740778023238   0.889037055678281   0.875000000000000   1.0000000
B2   B   0.277998796204516   0.389007924582007   0.875000000000000   1.0000000
B2   B   0.611425461221939   0.388995010038472   0.875000000000000   1.0000000
B2   B   0.778082643917277   0.889073173444476   0.875000000000000   1.0000000
B2   B   0.944738489064435   0.389014428193964   0.875000000000000   1.0000000
B2   B   0.111010780707767   0.389498167728788   0.375000000000000   1.0000000
B2   B   0.275137991401845   0.886457185945450   0.375000000000000   1.0000000
B2   B   0.612368293312510   0.892429256886714   0.375000000000000   1.0000000
B2   B   0.944185101898126   0.889364673495064   0.375000000000000   1.0000000
B2   B   0.777426666711834   0.385689062878050   0.375000000000000   1.0000000
B2   B   0.278039730835509   0.555697392910631   0.875000000000000   1.0000000
B2   B   0.111365140408075   0.055685109713121   0.875000000000000   1.0000000
B2   B   0.611425461221939   0.555763784516798   0.875000000000000   1.0000000
B2   B   0.444735611952667   0.055673463487189   0.875000000000000   1.0000000
B2   B   0.944751584368387   0.555697419356813   0.875000000000000   1.0000000
B2   B   0.108300044928933   0.555062856170345   0.375000000000000   1.0000000
B2   B   0.778077119331301   0.055705226332317   0.875000000000000   1.0000000
B2   B   0.275204367420832   0.051435153809346   0.375000000000000   1.0000000
B2   B   0.442360357217919   0.564610135594900   0.375000000000000   1.0000000
B2   B   0.772026163880603   0.552679748606966   0.375000000000000   1.0000000
B2   B   0.612368293312510   0.053272369759125   0.375000000000000   1.0000000
B2   B   0.444715806156124   0.555725068686945   0.875000000000000   1.0000000
B2   B   0.946649903730938   0.057155493367044   0.375000000000000   1.0000000
B2   B   0.278063355467212   0.722369825221660   0.875000000000000   1.0000000
B2   B   0.111347089305677   0.222340211319502   0.875000000000000   1.0000000
B2   B   0.444715806156124   0.222324070802518   0.875000000000000   1.0000000
B2   B   0.611415791142639   0.722424777553163   0.875000000000000   1.0000000
B2   B   0.944751584368387   0.722387498344910   0.875000000000000   1.0000000
B2   B   0.778082643917277   0.222342803806127   0.875000000000000   1.0000000
B2   B   0.107653279453798   0.720493306393563   0.375000000000000   1.0000000
B2   B   0.443531753683751   0.726630010891665   0.375000000000000   1.0000000
B2   B   0.278202213991294   0.220231130340599   0.375000000000000   1.0000000
B2   B   0.777426666711834   0.725070937167116   0.375000000000000   1.0000000
B2   B   0.612664900551468   0.213375252227234   0.375000000000000   1.0000000
B2   B   0.946649903730938   0.222827743697231   0.375000000000000   1.0000000
B2   B   0.111365140408075   0.389013364028284   0.875000000000000   1.0000000
B2   B   0.278063355467212   0.889026863578865   0.875000000000000   1.0000000
B2   B   0.611418625381161   0.889064285868019   0.875000000000000   1.0000000
B2   B   0.444664517314332   0.388998925323826   0.875000000000000   1.0000000
B2   B   0.944738489064435   0.889057394203796   0.875000000000000   1.0000000
B2   B   0.108300044928933   0.886570522091916   0.375000000000000   1.0000000
B2   B   0.778092431012036   0.389007699148441   0.875000000000000   1.0000000
B2   B   0.443539003763307   0.888436168548319   0.375000000000000   1.0000000
B2   B   0.278202213991294   0.391304416984024   0.375000000000000   1.0000000
B2   B   0.275204367420832   0.557102546944818   0.375000000000000   1.0000000
B2   B   0.611128612781190   0.370606330473418   0.375000000000000   1.0000000
B2   B   0.779798129210820   0.892270430078715   0.375000000000000   1.0000000
B2   B   0.944185101898126   0.388153761736386   0.375000000000000   1.0000000
B2   B   0.111391502298455   0.555691298130036   0.875000000000000   1.0000000
B2   B   0.278039730835509   0.055675671258216   0.875000000000000   1.0000000
B2   B   0.778091551822904   0.555712442578119   0.875000000000000   1.0000000
B2   B   0.611418625381161   0.055687672846471   0.875000000000000   1.0000000
B2   B   0.944720307751768   0.055702103168727   0.875000000000000   1.0000000
B2   B   0.056166445773435   0.111397686262737   0.124943589509879   1.0000000
B2   B   0.556215014470375   0.611689684803007   0.125934147135643   1.0000000
B2   B   0.389383846220316   0.111147510052391   0.125462559032580   1.0000000
B2   B   0.889683747024647   0.611508540178998   0.124821857202212   1.0000000
B2   B   0.722851732568331   0.111380447690897   0.124593374508781   1.0000000
B2   B   0.056211608598275   0.778095170914320   0.625117650879865   1.0000000
B2   B   0.389423312930676   0.778113356826502   0.625350329071149   1.0000000
B2   B   0.222762586556684   0.278047959945013   0.623284910499851   1.0000000
B2   B   0.722923310292362   0.778240082623293   0.625482132728253   1.0000000
B2   B   0.556215014470375   0.277858663000700   0.624065852864358   1.0000000
B2   B   0.889555308745829   0.278081029451047   0.625383338515364   1.0000000
B2   B   0.222791687671744   0.778062510502545   0.124874912980924   1.0000000
B2   B   0.056166445773435   0.278102092844034   0.124943589509879   1.0000000
B2   B   0.389237010168827   0.277561769579378   0.129551194096668   1.0000000
B2   B   0.556144451249314   0.778206673637222   0.124577578224684   1.0000000
B2   B   0.889637731423358   0.778195409864181   0.124617711270869   1.0000000
B2   B   0.722923310292362   0.278016561002412   0.124517867271745   1.0000000
B2   B   0.056181388140435   0.944739259529232   0.625272199801286   1.0000000
B2   B   0.389423312930676   0.944643289437506   0.625350329071149   1.0000000
B2   B   0.222746532203228   0.444815274722799   0.624379923827531   1.0000000
B2   B   0.556736946138776   0.445035139736052   0.621612630237918   1.0000000
B2   B   0.722851732568331   0.944804618210766   0.625406625491219   1.0000000
B2   B   0.889637731423358   0.444775654892511   0.625382288729123   1.0000000
B2   B   0.056181388140435   0.444775461944532   0.124727800198713   1.0000000
B2   B   0.222769774610600   0.944640563158191   0.124904388398812   1.0000000
B2   B   0.556129482685804   0.944731408009567   0.124515390884730   1.0000000
B2   B   0.389237010168827   0.445008573922785   0.129551194096668   1.0000000
B2   B   0.889555308745829   0.944807612628115   0.124616661484638   1.0000000
B2   B   0.723148925955740   0.444816254348123   0.125075917222790   1.0000000
B2   B   0.222769774610600   0.611462544785748   0.625095611601190   1.0000000
B2   B   0.056166445773435   0.111397686262737   0.625056410490123   1.0000000
B2   B   0.556215014470375   0.611689684803007   0.624065852864358   1.0000000
B2   B   0.389383846220316   0.111147510052391   0.624537440967417   1.0000000
B2   B   0.889683747024647   0.611508540178998   0.625178142797788   1.0000000
B2   B   0.056211608598275   0.611449771017292   0.124882349120135   1.0000000
B2   B   0.722851732568331   0.111380447690897   0.625406625491219   1.0000000
B2   B   0.222746532203228   0.111264590813765   0.125620076172468   1.0000000
B2   B   0.389383846220316   0.611569669501258   0.125462559032580   1.0000000
B2   B   0.723148925955740   0.611666004940953   0.125075917222790   1.0000000
B2   B   0.556144451249314   0.111271110945436   0.124577578224684   1.0000000
B2   B   0.389383846220316   0.611569669501258   0.624537440967417   1.0000000
B2   B   0.889526494255111   0.111429913794227   0.124750676122165   1.0000000
B2   B   0.222791687671744   0.778062510502545   0.625125087019074   1.0000000
B2   B   0.056166445773435   0.278102092844034   0.625056410490123   1.0000000
B2   B   0.389237010168827   0.277561769579378   0.620448805903334   1.0000000
B2   B   0.556144451249314   0.778206673637222   0.625422421775316   1.0000000
B2   B   0.889637731423358   0.778195409864181   0.625382288729123   1.0000000
B2   B   0.722923310292362   0.278016561002412   0.625482132728253   1.0000000
B2   B   0.056211608598275   0.778095170914320   0.124882349120135   1.0000000
B2   B   0.389423312930676   0.778113356826502   0.124649670928851   1.0000000
B2   B   0.222762586556684   0.278047959945013   0.126715089500148   1.0000000
B2   B   0.722923310292362   0.778240082623293   0.124517867271745   1.0000000
B2   B   0.556215014470375   0.277858663000700   0.125934147135643   1.0000000
B2   B   0.889555308745829   0.278081029451047   0.124616661484638   1.0000000
B2   B   0.056181388140435   0.444775461944532   0.625272199801286   1.0000000
B2   B   0.222769774610600   0.944640563158191   0.625095611601190   1.0000000
B2   B   0.556129482685804   0.944731408009567   0.625484609115269   1.0000000
B2   B   0.389237010168827   0.445008573922785   0.620448805903334   1.0000000
B2   B   0.889555308745829   0.944807612628115   0.625383338515364   1.0000000
B2   B   0.056181388140435   0.944739259529232   0.124727800198713   1.0000000
B2   B   0.723148925955740   0.444816254348123   0.624924082777213   1.0000000
B2   B   0.389423312930676   0.944643289437506   0.124649670928851   1.0000000
B2   B   0.222746532203228   0.444815274722799   0.125620076172468   1.0000000
B2   B   0.222769774610600   0.611462544785748   0.124904388398812   1.0000000
B2   B   0.556736946138776   0.445035139736052   0.128387369762083   1.0000000
B2   B   0.722851732568331   0.944804618210766   0.124593374508781   1.0000000
B2   B   0.889637731423358   0.444775654892511   0.124617711270869   1.0000000
B2   B   0.056211608598275   0.611449771017292   0.625117650879865   1.0000000
B2   B   0.222746532203228   0.111264590813765   0.624379923827531   1.0000000
B2   B   0.723148925955740   0.611666004940953   0.624924082777213   1.0000000
B2   B   0.556144451249314   0.111271110945436   0.625422421775316   1.0000000
B2   B   0.889526494255111   0.111429913794227   0.625249323877837   1.0000000


