data_1
_audit_creation_method   'vasp2cif'
_cell_length_a    17.52789999999977
_cell_length_b    17.52789999999977
_cell_length_c    15.0
_cell_angle_alpha    90.0
_cell_angle_beta    90.0
_cell_angle_gamma    119.99999999999916

_symmetry_space_group_name_H-M    'P 1'
loop_
_atom_site_label
_atom_site_type_symbol
_atom_site_fract_x
_atom_site_fract_y
_atom_site_fract_z
_atom_site_occupancy
B2   B   0.905352185217016   0.952939251807482   0.111002010012407   1.0000000
B2   B   0.904504880201146   0.095496821128854   0.111064435913384   1.0000000
B2   B   0.904197036263090   0.238357198057474   0.111080794400229   1.0000000
B2   B   0.904200203794158   0.381188305558994   0.110986487895326   1.0000000
B2   B   0.904773656878235   0.524020685393997   0.111011727459801   1.0000000
B2   B   0.906148933943778   0.667204178311156   0.111128750717681   1.0000000
B2   B   0.906475722466694   0.810600357252961   0.111080934093803   1.0000000
B2   B   0.047945270515646   0.952056495861351   0.111078002403159   1.0000000
B2   B   0.047062373925524   0.094649457532983   0.111002008411412   1.0000000
B2   B   0.046880743123921   0.237761249307822   0.110978824623965   1.0000000
B2   B   0.047168714156277   0.380702921256837   0.110978009217811   1.0000000
B2   B   0.047863102646201   0.523512193650944   0.110989565832519   1.0000000
B2   B   0.048440527368153   0.666394930541381   0.111100362259181   1.0000000
B2   B   0.048547366716953   0.809354987698293   0.111165783853239   1.0000000
B2   B   0.190646759655705   0.951454366599051   0.111165784847239   1.0000000
B2   B   0.189401447812036   0.093526066307306   0.111080932074803   1.0000000
B2   B   0.188826321318226   0.236304046028820   0.110944948899080   1.0000000
B2   B   0.189770298849902   0.380050136640841   0.110927910723021   1.0000000
B2   B   0.191091859886880   0.523086952659269   0.110982720239660   1.0000000
B2   B   0.191231984318199   0.665967886636362   0.111055913624809   1.0000000
B2   B   0.191161211778928   0.808840457517077   0.111110768461118   1.0000000
B2   B   0.333606745886619   0.951561143142844   0.111100364976176   1.0000000
B2   B   0.332797686345839   0.093852867045219   0.111128762455684   1.0000000
B2   B   0.330470797762123   0.234382494060954   0.111016931206780   1.0000000
B2   B   0.331012446998464   0.377492633023386   0.110945943947964   1.0000000
B2   B   0.335180541154057   0.523296969071183   0.111004987073393   1.0000000
B2   B   0.334225318597804   0.665776597480195   0.111036008911832   1.0000000
B2   B   0.334033876173640   0.808769806626801   0.111055911581813   1.0000000
B2   B   0.476489446423053   0.952138485232797   0.110989581703515   1.0000000
B2   B   0.475981113163004   0.095227991153762   0.111011754652804   1.0000000
B2   B   0.474985738508812   0.238031827878891   0.111034499965567   1.0000000
B2   B   0.469634777832707   0.377839587858944   0.111069452736541   1.0000000
B2   B   0.476705077123817   0.664819647007941   0.111005005525399   1.0000000
B2   B   0.476914904783727   0.808909713541122   0.110982725848656   1.0000000
B2   B   0.619298834847168   0.952833034399725   0.110978019947816   1.0000000
B2   B   0.618813428492011   0.095801362227842   0.110986498645326   1.0000000
B2   B   0.618280690904352   0.239007548312612   0.111043903042309   1.0000000
B2   B   0.617506244188630   0.382495798574371   0.111041691217902   1.0000000
B2   B   0.622163713117054   0.530367155256289   0.111069465393539   1.0000000
B2   B   0.622508778753613   0.668988487936538   0.110945958410969   1.0000000
B2   B   0.619951384435160   0.810231111776103   0.110927914203025   1.0000000
B2   B   0.762240384424176   0.953120862736078   0.110978827589962   1.0000000
B2   B   0.761644613747525   0.095804697535906   0.111080799309226   1.0000000
B2   B   0.761275642719920   0.238725920903082   0.111090452370367   1.0000000
B2   B   0.760994141523393   0.381720912825646   0.111043892824307   1.0000000
B2   B   0.761970593140114   0.525016164289193   0.111034490335567   1.0000000
B2   B   0.765619622657047   0.669531110331877   0.111016926617782   1.0000000
B2   B   0.763697439623180   0.811175151228772   0.110944951989081   1.0000000
C2   C   0.520380428637303   0.479623863400696   0.110983174045289   1.0000000
N2   N   0.953167582160326   0.905341928317675   0.111020563813278   1.0000000
N2   N   0.952185377844080   0.047816276831917   0.111009569233427   1.0000000
N2   N   0.951749170101621   0.190596699008520   0.111045549174745   1.0000000
N2   N   0.951795555487939   0.333510549015963   0.110989407095597   1.0000000
N2   N   0.952297663410589   0.476309103807957   0.110947793498418   1.0000000
N2   N   0.953125149027248   0.619147552764831   0.111071369897383   1.0000000
N2   N   0.953508341071173   0.762283210255322   0.111139569087158   1.0000000
N2   N   0.095642486056324   0.904359268710682   0.111138361087322   1.0000000
N2   N   0.094659846341323   0.046834216374677   0.111020566869280   1.0000000
N2   N   0.094046042910401   0.189586587451154   0.110944103670882   1.0000000
N2   N   0.094488690991667   0.332873883858011   0.110936291833756   1.0000000
N2   N   0.095488126749482   0.475847430489012   0.110955717177849   1.0000000
N2   N   0.095872627462330   0.618664067919222   0.111034184768721   1.0000000
N2   N   0.095992578377141   0.761547828242639   0.111119532918681   1.0000000
N2   N   0.238453858327362   0.904009093329863   0.111119529365676   1.0000000
N2   N   0.237718632435677   0.046493476338822   0.111139568442155   1.0000000
N2   N   0.236029760925163   0.188128790611471   0.110989750487830   1.0000000
N2   N   0.235825771183936   0.331093493231812   0.110900927999691   1.0000000
N2   N   0.238490837101183   0.475167075268900   0.110948729156658   1.0000000
N2   N   0.238834998775354   0.618321777823352   0.111003802901276   1.0000000
N2   N   0.238776049352711   0.761225699181286   0.111059547113309   1.0000000
N2   N   0.381337605151776   0.904129148535671   0.111034193002717   1.0000000
N2   N   0.380854246151172   0.046876525104746   0.111071377126381   1.0000000
N2   N   0.379911570641728   0.188995394723253   0.111055996687956   1.0000000
N2   N   0.376806401258330   0.328547639463504   0.110980933204109   1.0000000
N2   N   0.375069050944191   0.469860436897985   0.110902618788523   1.0000000
N2   N   0.381830011333683   0.618171680499316   0.111032260336658   1.0000000
N2   N   0.381680072901647   0.761166853522652   0.111003797589272   1.0000000
N2   N   0.524154334670988   0.904513758601522   0.110955731905851   1.0000000
N2   N   0.523692657097037   0.047703707318414   0.110947828946421   1.0000000
N2   N   0.523100208362324   0.190899996277120   0.111004908166681   1.0000000
N2   N   0.521703428046068   0.334148036210156   0.111035959279556   1.0000000
N2   N   0.530140618195009   0.624928737977811   0.110902691127522   1.0000000
N2   N   0.524834413042100   0.761510073953813   0.110948730322651   1.0000000
N2   N   0.667127703337992   0.905512880038337   0.110936295208762   1.0000000
N2   N   0.666491283963032   0.048206139487059   0.110989417661602   1.0000000
N2   N   0.665990373848374   0.191319298444304   0.111023183460290   1.0000000
N2   N   0.665298727057113   0.334702940218890   0.111022907739111   1.0000000
N2   N   0.665854959757847   0.478298400030929   0.111035984204557   1.0000000
N2   N   0.671454877584499   0.623195478623670   0.110980933740107   1.0000000
N2   N   0.668907875996189   0.764175485988066   0.110900934609692   1.0000000
N2   N   0.810415015937848   0.905955509617596   0.110944106631884   1.0000000
N2   N   0.809405031877478   0.048252509649380   0.111045546209750   1.0000000
N2   N   0.808944146691753   0.191057597066246   0.111105707891803   1.0000000
N2   N   0.808682320510693   0.334011157155629   0.111023191276289   1.0000000
N2   N   0.809101873578880   0.476901373171684   0.111004872440684   1.0000000
N2   N   0.811006589054746   0.620090310026273   0.111055977259956   1.0000000
N2   N   0.811873098023527   0.763972089437836   0.110989753418826   1.0000000


