data_1
_audit_creation_method   'vasp2cif'
_cell_length_a    14.93631414619966
_cell_length_b    14.936314146199727
_cell_length_c    13.341276283792837
_cell_angle_alpha    90.0
_cell_angle_beta    90.0
_cell_angle_gamma    119.99999999999984

_symmetry_space_group_name_H-M    'P 1'
loop_
_atom_site_label
_atom_site_type_symbol
_atom_site_fract_x
_atom_site_fract_y
_atom_site_fract_z
_atom_site_occupancy
C2   C   0.389979874649767   0.445068094230260   0.375000000000000   1.0000000
O2   O   0.558424025717166   0.445129463446312   0.375000000000000   1.0000000
N2   N   0.111009995272298   0.055364990008312   0.124944552001963   1.0000000
N2   N   0.610976494790205   0.555341712747373   0.125432943552841   1.0000000
N2   N   0.444355271072323   0.055381993948180   0.124929391030842   1.0000000
N2   N   0.944315391169355   0.555347328140061   0.124978956943711   1.0000000
N2   N   0.777677429013259   0.055360052227428   0.124947203966392   1.0000000
N2   N   0.111005365844253   0.722019129920413   0.625038968642524   1.0000000
N2   N   0.444344009400360   0.722044698685024   0.625067541225225   1.0000000
N2   N   0.277664848642441   0.222023892294945   0.625043162618179   1.0000000
N2   N   0.777685733693016   0.722065929912405   0.625002560965693   1.0000000
N2   N   0.611006188658280   0.222028097011002   0.625009388493243   1.0000000
N2   N   0.944344853317264   0.222023087686186   0.625079397626861   1.0000000
N2   N   0.277673309800897   0.722023896825636   0.124956386548184   1.0000000
N2   N   0.111004359195016   0.222025814703131   0.124908086670011   1.0000000
N2   N   0.444347908599135   0.222041603657643   0.124965166042115   1.0000000
N2   N   0.611010716889688   0.722045741422959   0.124997372685547   1.0000000
N2   N   0.944339359465493   0.722033255145075   0.125021054274054   1.0000000
N2   N   0.777681363113522   0.222006129448759   0.124966659392793   1.0000000
N2   N   0.111020914522882   0.888693344035065   0.625042015377230   1.0000000
N2   N   0.444346637866108   0.888702118343592   0.625039121568200   1.0000000
N2   N   0.277639392703391   0.388678122967996   0.625495995994409   1.0000000
N2   N   0.610997563928495   0.388721736935407   0.624488292254036   1.0000000
N2   N   0.777679229967700   0.888712003308420   0.625035225108695   1.0000000
N2   N   0.944324127001352   0.388682959728997   0.625008925715582   1.0000000
N2   N   0.111000248751788   0.388695264591455   0.124899138469499   1.0000000
N2   N   0.277685190215674   0.888698333299218   0.124928267503146   1.0000000
N2   N   0.610996136523209   0.888704158983585   0.124952737314934   1.0000000
N2   N   0.444400175135318   0.388693279244400   0.124426690866455   1.0000000
N2   N   0.944358148620171   0.888717946874551   0.124950163322907   1.0000000
N2   N   0.777660543691829   0.388687142585294   0.125005704033478   1.0000000
N2   N   0.277668118338546   0.555358217629466   0.625058133512115   1.0000000
N2   N   0.111009995272298   0.055364990008312   0.625055447998038   1.0000000
N2   N   0.610976494790205   0.555341712747373   0.624567056447154   1.0000000
N2   N   0.444355271072323   0.055381993948180   0.625070608969152   1.0000000
N2   N   0.944315391169355   0.555347328140061   0.625021043056284   1.0000000
N2   N   0.110996097903380   0.555347514451122   0.124975015639725   1.0000000
N2   N   0.777677429013259   0.055360052227428   0.625052796033606   1.0000000
N2   N   0.277683445276866   0.055367738773966   0.124963344572981   1.0000000
N2   N   0.444372533572475   0.555428219505053   0.124464355482258   1.0000000
N2   N   0.777660359954241   0.555379957045717   0.125043243436671   1.0000000
N2   N   0.611008851611765   0.055366258118217   0.124970444623168   1.0000000
N2   N   0.444372533572475   0.555428219505053   0.625535644517742   1.0000000
N2   N   0.944347088582554   0.055364319578281   0.124940615367695   1.0000000
N2   N   0.277673309800897   0.722023896825636   0.625043613451812   1.0000000
N2   N   0.111004359195016   0.222025814703131   0.625091913329986   1.0000000
N2   N   0.444347908599135   0.222041603657643   0.625034833957892   1.0000000
N2   N   0.611010716889688   0.722045741422959   0.625002627314452   1.0000000
N2   N   0.944339359465493   0.722033255145075   0.624978945725947   1.0000000
N2   N   0.777681363113522   0.222006129448759   0.625033340607206   1.0000000
N2   N   0.111005365844253   0.722019129920413   0.124961031357477   1.0000000
N2   N   0.444344009400360   0.722044698685024   0.124932458774776   1.0000000
N2   N   0.277664848642441   0.222023892294945   0.124956837381821   1.0000000
N2   N   0.777685733693016   0.722065929912405   0.124997439034306   1.0000000
N2   N   0.611006188658280   0.222028097011002   0.124990611506758   1.0000000
N2   N   0.944344853317264   0.222023087686186   0.124920602373133   1.0000000
N2   N   0.111000248751788   0.388695264591455   0.625100861530501   1.0000000
N2   N   0.277685190215674   0.888698333299218   0.625071732496852   1.0000000
N2   N   0.610996136523209   0.888704158983585   0.625047262685067   1.0000000
N2   N   0.444400175135318   0.388693279244400   0.625573309133543   1.0000000
N2   N   0.944358148620171   0.888717946874551   0.625049836677096   1.0000000
N2   N   0.111020914522882   0.888693344035065   0.124957984622772   1.0000000
N2   N   0.777660543691829   0.388687142585294   0.624994295966521   1.0000000
N2   N   0.444346637866108   0.888702118343592   0.124960878431795   1.0000000
N2   N   0.277639392703391   0.388678122967996   0.124504004005598   1.0000000
N2   N   0.277668118338546   0.555358217629466   0.124941866487884   1.0000000
N2   N   0.610997563928495   0.388721736935407   0.125511707745965   1.0000000
N2   N   0.777679229967700   0.888712003308420   0.124964774891311   1.0000000
N2   N   0.944324127001352   0.388682959728997   0.124991074284416   1.0000000
N2   N   0.110996097903380   0.555347514451122   0.625024984360269   1.0000000
N2   N   0.277683445276866   0.055367738773966   0.625036655427022   1.0000000
N2   N   0.777660359954241   0.555379957045717   0.624956756563326   1.0000000
N2   N   0.611008851611765   0.055366258118217   0.625029555376826   1.0000000
N2   N   0.944347088582554   0.055364319578281   0.625059384632300   1.0000000
N2   N   0.054942488267462   0.110434370385904   0.375000000000000   1.0000000
N2   N   0.557826630167630   0.612911556234589   0.375000000000000   1.0000000
N2   N   0.388826558797698   0.110272230088903   0.375000000000000   1.0000000
N2   N   0.889047090898163   0.611366008720286   0.375000000000000   1.0000000
N2   N   0.722330603842596   0.111448943311483   0.375000000000000   1.0000000
N2   N   0.055667584251874   0.777983717342325   0.875000000000000   1.0000000
N2   N   0.388999244928036   0.777985617587066   0.875000000000000   1.0000000
N2   N   0.222329566955387   0.277980520812254   0.875000000000000   1.0000000
N2   N   0.722330762663851   0.777981530715312   0.875000000000000   1.0000000
N2   N   0.555668023795520   0.277984713995106   0.875000000000000   1.0000000
N2   N   0.889006555629383   0.277987163186467   0.875000000000000   1.0000000
N2   N   0.222142168250392   0.777932605966041   0.375000000000000   1.0000000
N2   N   0.054935415333900   0.277561544060913   0.375000000000000   1.0000000
N2   N   0.389811063749157   0.276098379188536   0.375000000000000   1.0000000
N2   N   0.556176203897652   0.778579072846376   0.375000000000000   1.0000000
N2   N   0.888877096872210   0.777776598094755   0.375000000000000   1.0000000
N2   N   0.722253986060005   0.278120464418243   0.375000000000000   1.0000000
N2   N   0.055665541031052   0.944646325467394   0.875000000000000   1.0000000
N2   N   0.389007056794242   0.944662674671368   0.875000000000000   1.0000000
N2   N   0.222336027345993   0.444660198100957   0.875000000000000   1.0000000
N2   N   0.555678903968937   0.444648163540986   0.875000000000000   1.0000000
N2   N   0.722327593916975   0.944647168662332   0.875000000000000   1.0000000
N2   N   0.888997324280355   0.444646031691557   0.875000000000000   1.0000000
N2   N   0.054845967042897   0.444681600960462   0.375000000000000   1.0000000
N2   N   0.222091240937883   0.944263791017118   0.375000000000000   1.0000000
N2   N   0.555771785800965   0.944914853044815   0.375000000000000   1.0000000
N2   N   0.889030735252944   0.944569863383298   0.375000000000000   1.0000000
N2   N   0.722521510384183   0.444979412722932   0.375000000000000   1.0000000
N2   N   0.222327009759692   0.611318579422294   0.875000000000000   1.0000000
N2   N   0.055667263166578   0.111315327548764   0.875000000000000   1.0000000
N2   N   0.555669078320771   0.611303350895603   0.875000000000000   1.0000000
N2   N   0.389008561640898   0.111327744289561   0.875000000000000   1.0000000
N2   N   0.888991639536344   0.611305395473564   0.875000000000000   1.0000000
N2   N   0.055488901249980   0.611370386013582   0.375000000000000   1.0000000
N2   N   0.722327830381199   0.111308615886103   0.875000000000000   1.0000000
N2   N   0.222162529701037   0.110789338827160   0.375000000000000   1.0000000
N2   N   0.389307315836453   0.613478792610063   0.375000000000000   1.0000000
N2   N   0.722096430254689   0.610673549200795   0.375000000000000   1.0000000
N2   N   0.555670768603033   0.111420091162322   0.375000000000000   1.0000000
N2   N   0.389001174021555   0.611314054012393   0.875000000000000   1.0000000
N2   N   0.888773931224664   0.111163289610082   0.375000000000000   1.0000000
N2   N   0.222331759847476   0.777991055348450   0.875000000000000   1.0000000
N2   N   0.055672359370242   0.277994142436599   0.875000000000000   1.0000000
N2   N   0.388995107851997   0.277984797148351   0.875000000000000   1.0000000
N2   N   0.555660180350130   0.777975897470600   0.875000000000000   1.0000000
N2   N   0.889006760914687   0.777985177340155   0.875000000000000   1.0000000
N2   N   0.722337173274913   0.277978501975358   0.875000000000000   1.0000000
N2   N   0.055542936436225   0.777867569954050   0.375000000000000   1.0000000
N2   N   0.388949798926904   0.778705986442224   0.375000000000000   1.0000000
N2   N   0.220444264556503   0.275951878252657   0.375000000000000   1.0000000
N2   N   0.723242781875569   0.778641827329439   0.375000000000000   1.0000000
N2   N   0.555726783346156   0.278329525834689   0.375000000000000   1.0000000
N2   N   0.888663527100069   0.277931196540910   0.375000000000000   1.0000000
N2   N   0.055672933270191   0.444662889391871   0.875000000000000   1.0000000
N2   N   0.222335113992350   0.944650774459184   0.875000000000000   1.0000000
N2   N   0.555656556849470   0.944639314604942   0.875000000000000   1.0000000
N2   N   0.389005401961343   0.444649340353319   0.875000000000000   1.0000000
N2   N   0.888998869301936   0.944646006845428   0.875000000000000   1.0000000
N2   N   0.055470566254878   0.944310047584360   0.375000000000000   1.0000000
N2   N   0.722329201044454   0.444644372855763   0.875000000000000   1.0000000
N2   N   0.388883403592938   0.944512959725922   0.375000000000000   1.0000000
N2   N   0.220438347687213   0.444405485797707   0.375000000000000   1.0000000
N2   N   0.222079839981676   0.611467123739138   0.375000000000000   1.0000000
N2   N   0.722523840292993   0.944879648367494   0.375000000000000   1.0000000
N2   N   0.888748013845650   0.444742900456227   0.375000000000000   1.0000000
N2   N   0.055655001705884   0.611316746959158   0.875000000000000   1.0000000
N2   N   0.222327232688017   0.111309759996854   0.875000000000000   1.0000000
N2   N   0.722338099955250   0.611320560190681   0.875000000000000   1.0000000
N2   N   0.555670369467184   0.111317590328853   0.875000000000000   1.0000000
N2   N   0.889001133547809   0.111321646844578   0.875000000000000   1.0000000
B2   B   0.111108159936656   0.055594985218113   0.375000000000000   1.0000000
B2   B   0.612304452880130   0.558530004182290   0.375000000000000   1.0000000
B2   B   0.444430643218678   0.055211037132348   0.375000000000000   1.0000000
B2   B   0.944730580076549   0.555831527053560   0.375000000000000   1.0000000
B2   B   0.777967213533916   0.055936605128302   0.375000000000000   1.0000000
B2   B   0.111241244514727   0.722462122926417   0.875000000000000   1.0000000
B2   B   0.444550201339259   0.722422867841050   0.875000000000000   1.0000000
B2   B   0.277828338294621   0.222420961899644   0.875000000000000   1.0000000
B2   B   0.777914365457572   0.722482524647945   0.875000000000000   1.0000000
B2   B   0.611180904846302   0.222399576955919   0.875000000000000   1.0000000
B2   B   0.944554000158469   0.222431690282936   0.875000000000000   1.0000000
B2   B   0.277778905189028   0.722371800768734   0.375000000000000   1.0000000
B2   B   0.110408764593247   0.221485905954875   0.375000000000000   1.0000000
B2   B   0.444134255686427   0.220645496790625   0.375000000000000   1.0000000
B2   B   0.612441678870059   0.723698238236930   0.375000000000000   1.0000000
B2   B   0.944723155606951   0.722494352216892   0.375000000000000   1.0000000
B2   B   0.777925742291051   0.222369980006587   0.375000000000000   1.0000000
B2   B   0.111256289056388   0.889073131131332   0.875000000000000   1.0000000
B2   B   0.444573266347384   0.889059413154543   0.875000000000000   1.0000000
B2   B   0.277906547177642   0.389099045200250   0.875000000000000   1.0000000
B2   B   0.611207485923372   0.389083882872517   0.875000000000000   1.0000000
B2   B   0.777908025460984   0.889073269582620   0.875000000000000   1.0000000
B2   B   0.944584222220920   0.389088684846064   0.875000000000000   1.0000000
B2   B   0.110513699252555   0.389100921511415   0.375000000000000   1.0000000
B2   B   0.277644315930962   0.888840050954119   0.375000000000000   1.0000000
B2   B   0.611363249422951   0.889348488728519   0.375000000000000   1.0000000
B2   B   0.944474511003647   0.889024367189180   0.375000000000000   1.0000000
B2   B   0.778265329902758   0.389053515647547   0.375000000000000   1.0000000
B2   B   0.277857034456115   0.555726612645493   0.875000000000000   1.0000000
B2   B   0.111243635843893   0.055800170642100   0.875000000000000   1.0000000
B2   B   0.611163836242358   0.555747152125989   0.875000000000000   1.0000000
B2   B   0.444574168506475   0.055809865151262   0.875000000000000   1.0000000
B2   B   0.944512357101035   0.555731401971350   0.875000000000000   1.0000000
B2   B   0.111224491611706   0.555728381959421   0.375000000000000   1.0000000
B2   B   0.777909064334992   0.055794730143236   0.875000000000000   1.0000000
B2   B   0.277589468074504   0.055256035697026   0.375000000000000   1.0000000
B2   B   0.445132239469190   0.557688105281594   0.375000000000000   1.0000000
B2   B   0.778742544114806   0.555931863360211   0.375000000000000   1.0000000
B2   B   0.611260491206963   0.055815497959630   0.375000000000000   1.0000000
B2   B   0.444547003504238   0.555694684534567   0.875000000000000   1.0000000
B2   B   0.944316941056215   0.055534861329659   0.375000000000000   1.0000000
B2   B   0.277889392207124   0.722406082722263   0.875000000000000   1.0000000
B2   B   0.111274512176418   0.222431948861395   0.875000000000000   1.0000000
B2   B   0.444548317941851   0.222415853291614   0.875000000000000   1.0000000
B2   B   0.611200853093046   0.722396736168344   0.875000000000000   1.0000000
B2   B   0.944566492019184   0.722424134468512   0.875000000000000   1.0000000
B2   B   0.777933555306720   0.222390796617939   0.875000000000000   1.0000000
B2   B   0.111212311287955   0.722461642014833   0.375000000000000   1.0000000
B2   B   0.444517104570255   0.723309287835554   0.375000000000000   1.0000000
B2   B   0.277511931950589   0.222225974616745   0.375000000000000   1.0000000
B2   B   0.778144864479949   0.722834487895433   0.375000000000000   1.0000000
B2   B   0.611223946919399   0.222214528774273   0.375000000000000   1.0000000
B2   B   0.944315859616776   0.222296138716942   0.375000000000000   1.0000000
B2   B   0.111279478564261   0.389153684619333   0.875000000000000   1.0000000
B2   B   0.277856682230246   0.889084978902627   0.875000000000000   1.0000000
B2   B   0.611154954330956   0.889048383598302   0.875000000000000   1.0000000
B2   B   0.444520993971647   0.389131261207445   0.875000000000000   1.0000000
B2   B   0.944530711161998   0.889086740621607   0.875000000000000   1.0000000
B2   B   0.111130292004845   0.888898424109625   0.375000000000000   1.0000000
B2   B   0.777914821022112   0.389116024674181   0.875000000000000   1.0000000
B2   B   0.444592552469379   0.889237794334738   0.375000000000000   1.0000000
B2   B   0.276200024120278   0.388030823096499   0.375000000000000   1.0000000
B2   B   0.277842915218975   0.555563713752177   0.375000000000000   1.0000000
B2   B   0.613294748575309   0.387790659086143   0.375000000000000   1.0000000
B2   B   0.778365975477342   0.889589369715238   0.375000000000000   1.0000000
B2   B   0.944293855494185   0.389047795629895   0.375000000000000   1.0000000
B2   B   0.111256342776941   0.555737437434343   0.875000000000000   1.0000000
B2   B   0.277885296358489   0.055765030050348   0.875000000000000   1.0000000
B2   B   0.777916995781099   0.555743781007317   0.875000000000000   1.0000000
B2   B   0.611221927032896   0.055739525242038   0.875000000000000   1.0000000
B2   B   0.944576774507177   0.055768289224765   0.875000000000000   1.0000000
B2   B   0.055559419046355   0.111019810845862   0.125039430656777   1.0000000
B2   B   0.555209843578985   0.610848824143243   0.125025994798878   1.0000000
B2   B   0.388807303265706   0.110941757411014   0.125005261588196   1.0000000
B2   B   0.888813334694498   0.610903636246114   0.124966715314966   1.0000000
B2   B   0.722184096742842   0.110931402068477   0.124991936119828   1.0000000
B2   B   0.055547848019259   0.777631383007496   0.624990983398212   1.0000000
B2   B   0.388821996991010   0.777560422046539   0.624935386973094   1.0000000
B2   B   0.222179895190999   0.277694177689351   0.624879317366242   1.0000000
B2   B   0.722130164272978   0.777638974965998   0.625019088762046   1.0000000
B2   B   0.555348457830224   0.277447968294435   0.624951007588459   1.0000000
B2   B   0.888800908617153   0.277527347211431   0.624990667373018   1.0000000
B2   B   0.222124228532829   0.777590697126573   0.125015509681986   1.0000000
B2   B   0.055519598296146   0.277626164247177   0.125048133460619   1.0000000
B2   B   0.388734130749025   0.277665793907926   0.124953966437853   1.0000000
B2   B   0.555358841941021   0.777589567467968   0.125037274651577   1.0000000
B2   B   0.888777746337917   0.777677889462990   0.124969842626098   1.0000000
B2   B   0.722121878412667   0.277563018236286   0.124961616004380   1.0000000
B2   B   0.055491690595309   0.944329070173267   0.625005073366547   1.0000000
B2   B   0.388783735056119   0.944252341920229   0.625011583331707   1.0000000
B2   B   0.222180910374325   0.444236064122958   0.624853699233595   1.0000000
B2   B   0.555202293344826   0.444235599110419   0.625534058577842   1.0000000
B2   B   0.722104750780772   0.944270210627630   0.625005499392458   1.0000000
B2   B   0.888789686473758   0.444266972607376   0.625013840134805   1.0000000
B2   B   0.055557990773859   0.444245909166869   0.125066157321146   1.0000000
B2   B   0.222125294720976   0.944235124192442   0.125002030049713   1.0000000
B2   B   0.555417661194200   0.944198400730448   0.125014735442305   1.0000000
B2   B   0.388743191583384   0.444295279115781   0.125938427024770   1.0000000
B2   B   0.888792137572364   0.944257053076420   0.124994780770100   1.0000000
B2   B   0.722223822797461   0.444294936163765   0.125022238366834   1.0000000
B2   B   0.222149774598688   0.610821396431061   0.624880293238528   1.0000000
B2   B   0.055559419046355   0.111019810845862   0.624960569343228   1.0000000
B2   B   0.555209843578985   0.610848824143243   0.624974005201128   1.0000000
B2   B   0.388807303265706   0.110941757411014   0.624994738411805   1.0000000
B2   B   0.888813334694498   0.610903636246114   0.625033284685034   1.0000000
B2   B   0.055494257542133   0.610908337495374   0.125018248527541   1.0000000
B2   B   0.722184096742842   0.110931402068477   0.625008063880167   1.0000000
B2   B   0.222116928173862   0.111045652147571   0.125067586963681   1.0000000
B2   B   0.388768586644125   0.610849146194792   0.125102850438480   1.0000000
B2   B   0.722102065725148   0.610983431425520   0.124983599008703   1.0000000
B2   B   0.555402903311773   0.110922624467293   0.124972222676561   1.0000000
B2   B   0.388768586644125   0.610849146194792   0.624897149561521   1.0000000
B2   B   0.888793511826952   0.110964189827115   0.125004907459619   1.0000000
B2   B   0.222124228532829   0.777590697126573   0.624984490318015   1.0000000
B2   B   0.055519598296146   0.277626164247177   0.624951866539383   1.0000000
B2   B   0.388734130749025   0.277665793907926   0.625046033562147   1.0000000
B2   B   0.555358841941021   0.777589567467968   0.624962725348418   1.0000000
B2   B   0.888777746337917   0.777677889462990   0.625030157373899   1.0000000
B2   B   0.722121878412667   0.277563018236286   0.625038383995620   1.0000000
B2   B   0.055547848019259   0.777631383007496   0.125009016601796   1.0000000
B2   B   0.388821996991010   0.777560422046539   0.125064613026906   1.0000000
B2   B   0.222179895190999   0.277694177689351   0.125120682633754   1.0000000
B2   B   0.722130164272978   0.777638974966003   0.124980911237958   1.0000000
B2   B   0.555348457830224   0.277447968294435   0.125048992411535   1.0000000
B2   B   0.888800908617153   0.277527347211431   0.125009332626987   1.0000000
B2   B   0.055557990773859   0.444245909166869   0.624933842678851   1.0000000
B2   B   0.222125294720976   0.944235124192442   0.624997969950288   1.0000000
B2   B   0.555417661194200   0.944198400730448   0.624985264557694   1.0000000
B2   B   0.388743191583384   0.444295279115781   0.624061572975232   1.0000000
B2   B   0.888792137572364   0.944257053076420   0.625005219229892   1.0000000
B2   B   0.055491690595309   0.944329070173267   0.124994926633450   1.0000000
B2   B   0.722223822797461   0.444294936163765   0.624977761633165   1.0000000
B2   B   0.388783735056119   0.944252341920229   0.124988416668282   1.0000000
B2   B   0.222180910374325   0.444236064122958   0.125146300766395   1.0000000
B2   B   0.222149774598688   0.610821396431061   0.125119706761480   1.0000000
B2   B   0.555202293344826   0.444235599110419   0.124465941422158   1.0000000
B2   B   0.722104750780772   0.944270210627630   0.124994500607545   1.0000000
B2   B   0.888789686473758   0.444266972607376   0.124986159865188   1.0000000
B2   B   0.055494257542133   0.610908337495374   0.624981751472450   1.0000000
B2   B   0.222116928173862   0.111045652147571   0.624932413036317   1.0000000
B2   B   0.722102065725148   0.610983431425520   0.625016400991294   1.0000000
B2   B   0.555402903311773   0.110922624467293   0.625027777323442   1.0000000
B2   B   0.888793511826952   0.110964189827115   0.624995092540388   1.0000000
B2   B   0.441647693717317   0.386325817106030   0.375000000000000   1.0000000


