data_1
_audit_creation_method   'vasp2cif'
_cell_length_a    14.93631414619966
_cell_length_b    14.936314146199727
_cell_length_c    13.341276283792837
_cell_angle_alpha    90.0
_cell_angle_beta    90.0
_cell_angle_gamma    119.99999999999984

_symmetry_space_group_name_H-M    'P 1'
loop_
_atom_site_label
_atom_site_type_symbol
_atom_site_fract_x
_atom_site_fract_y
_atom_site_fract_z
_atom_site_occupancy
C2   C   0.390395453373938   0.441376457078095   0.375000000000000   1.0000000
C2   C   0.443360294517169   0.386720589034338   0.375000000000000   1.0000000
C2   C   0.550981003704157   0.441376457078095   0.375000000000000   1.0000000
N2   N   0.111102633590882   0.055547172491317   0.125048624126942   1.0000000
N2   N   0.611079582063157   0.555525476885026   0.124940356886911   1.0000000
N2   N   0.444444538900434   0.055547172491317   0.125048624126942   1.0000000
N2   N   0.944438805560824   0.555551059070980   0.125016367848275   1.0000000
N2   N   0.777779660374340   0.055559320748682   0.124994767037012   1.0000000
N2   N   0.111106763180423   0.722213526360839   0.624990768518608   1.0000000
N2   N   0.444444691465115   0.722205939460505   0.624962026939991   1.0000000
N2   N   0.277763524012426   0.222206775253843   0.625035865704236   1.0000000
N2   N   0.777761247995390   0.722205939460505   0.624962026939991   1.0000000
N2   N   0.611107742877696   0.222214081649034   0.624947840648068   1.0000000
N2   N   0.944445477042057   0.222224052608393   0.624998239510980   1.0000000
N2   N   0.277778905224485   0.722211143315164   0.125014546822280   1.0000000
N2   N   0.111106338771345   0.222214081649034   0.125052159351931   1.0000000
N2   N   0.444443251241418   0.222206775253843   0.124964134295764   1.0000000
N2   N   0.611106877040968   0.722213754081928   0.125000578972054   1.0000000
N2   N   0.944432238090681   0.722211143315164   0.125014546822280   1.0000000
N2   N   0.777778575566337   0.222224052608393   0.125001760489019   1.0000000
N2   N   0.111104000484328   0.888880930196643   0.624987909536505   1.0000000
N2   N   0.444445135490573   0.888883200283855   0.624989885261139   1.0000000
N2   N   0.277775894910115   0.388870370234786   0.625165569744346   1.0000000
N2   N   0.611094475324678   0.388870370234786   0.625165569744346   1.0000000
N2   N   0.777777573565736   0.888889578718329   0.625010514546347   1.0000000
N2   N   0.944445059419877   0.388890118839754   0.625000355995857   1.0000000
N2   N   0.111111269085329   0.388886093631020   0.125016938917049   1.0000000
N2   N   0.277776929712323   0.888880930196643   0.125012090463495   1.0000000
N2   N   0.611112005152599   0.888889578718329   0.124989485453652   1.0000000
N2   N   0.444413602470782   0.388827204941565   0.123677484045408   1.0000000
N2   N   0.944438064793280   0.888883200283855   0.125010114738861   1.0000000
N2   N   0.777774824545698   0.388886093631020   0.125016938917049   1.0000000
N2   N   0.277785569367554   0.555540041544119   0.624922252960754   1.0000000
N2   N   0.111102633590882   0.055547172491317   0.624951375873058   1.0000000
N2   N   0.611079582063157   0.555525476885026   0.625059643113089   1.0000000
N2   N   0.444444538900434   0.055547172491317   0.624951375873058   1.0000000
N2   N   0.944438805560824   0.555551059070980   0.624983632151725   1.0000000
N2   N   0.111112253510155   0.555551059070980   0.125016367848275   1.0000000
N2   N   0.777779660374340   0.055559320748682   0.625005232962988   1.0000000
N2   N   0.277773032322654   0.055546064645308   0.125029115191647   1.0000000
N2   N   0.444445894821868   0.555525476885026   0.124940356886911   1.0000000
N2   N   0.777754472176565   0.555540041544119   0.125077747039245   1.0000000
N2   N   0.611110303713485   0.055552914863242   0.125006769504750   1.0000000
N2   N   0.444445894821868   0.555525476885026   0.625059643113089   1.0000000
N2   N   0.944442611149756   0.055552914863242   0.125006769504750   1.0000000
N2   N   0.277778905224485   0.722211143315164   0.624985453177720   1.0000000
N2   N   0.111106338771345   0.222214081649034   0.624947840648068   1.0000000
N2   N   0.444443251241418   0.222206775253843   0.625035865704236   1.0000000
N2   N   0.611106877040968   0.722213754081928   0.624999421027947   1.0000000
N2   N   0.944432238090681   0.722211143315164   0.624985453177720   1.0000000
N2   N   0.777778575566337   0.222224052608393   0.624998239510980   1.0000000
N2   N   0.111106763180423   0.722213526360839   0.125009231481392   1.0000000
N2   N   0.444444691465115   0.722205939460505   0.125037973060009   1.0000000
N2   N   0.277763524012426   0.222206775253843   0.124964134295764   1.0000000
N2   N   0.777761247995390   0.722205939460505   0.125037973060009   1.0000000
N2   N   0.611107742877696   0.222214081649034   0.125052159351931   1.0000000
N2   N   0.944445477042057   0.222224052608393   0.125001760489019   1.0000000
N2   N   0.111111269085329   0.388886093631020   0.624983061082951   1.0000000
N2   N   0.277776929712323   0.888880930196643   0.624987909536505   1.0000000
N2   N   0.611112005152599   0.888889578718329   0.625010514546347   1.0000000
N2   N   0.444413602470782   0.388827204941565   0.626322515954592   1.0000000
N2   N   0.944438064793280   0.888883200283855   0.624989885261139   1.0000000
N2   N   0.111104000484328   0.888880930196643   0.125012090463495   1.0000000
N2   N   0.777774824545698   0.388886093631020   0.624983061082951   1.0000000
N2   N   0.444445135490573   0.888883200283855   0.125010114738861   1.0000000
N2   N   0.277775894910115   0.388870370234786   0.124834430255654   1.0000000
N2   N   0.277785569367554   0.555540041544119   0.125077747039245   1.0000000
N2   N   0.611094475324678   0.388870370234786   0.124834430255654   1.0000000
N2   N   0.777777573565736   0.888889578718329   0.124989485453652   1.0000000
N2   N   0.944445059419877   0.388890118839754   0.124999644004144   1.0000000
N2   N   0.111112253510155   0.555551059070980   0.624983632151725   1.0000000
N2   N   0.277773032322654   0.055546064645308   0.624970884808352   1.0000000
N2   N   0.777754472176565   0.555540041544119   0.624922252960754   1.0000000
N2   N   0.611110303713485   0.055552914863242   0.624993230495251   1.0000000
N2   N   0.944442611149756   0.055552914863242   0.624993230495251   1.0000000
N2   N   0.054868095486260   0.110266283657435   0.375000000000000   1.0000000
N2   N   0.558176526662499   0.616353053324998   0.375000000000000   1.0000000
N2   N   0.388723270056615   0.111235353434700   0.375000000000000   1.0000000
N2   N   0.888486317282443   0.610904529397635   0.375000000000000   1.0000000
N2   N   0.722274819142605   0.111135307384179   0.375000000000000   1.0000000
N2   N   0.055556693354997   0.777780000950813   0.875000000000000   1.0000000
N2   N   0.388890877441578   0.777782645441274   0.875000000000000   1.0000000
N2   N   0.222224188317452   0.277780507664703   0.875000000000000   1.0000000
N2   N   0.722223623272247   0.777779763599104   0.875000000000000   1.0000000
N2   N   0.555556319347251   0.277780507664703   0.875000000000000   1.0000000
N2   N   0.888891300539858   0.277782601079725   0.875000000000000   1.0000000
N2   N   0.222131044627138   0.777623220791480   0.375000000000000   1.0000000
N2   N   0.054913613122375   0.277367673423771   0.375000000000000   1.0000000
N2   N   0.389242690000507   0.278485380001021   0.375000000000000   1.0000000
N2   N   0.556011903991646   0.779649674594696   0.375000000000000   1.0000000
N2   N   0.889396531312116   0.778253256351279   0.375000000000000   1.0000000
N2   N   0.722454060301395   0.277367673423771   0.375000000000000   1.0000000
N2   N   0.055556353908063   0.944448118771686   0.875000000000000   1.0000000
N2   N   0.388891764863624   0.944448118771686   0.875000000000000   1.0000000
N2   N   0.222223661221351   0.444449175097746   0.875000000000000   1.0000000
N2   N   0.555561165267237   0.444452361730930   0.875000000000000   1.0000000
N2   N   0.722223249578262   0.944446499156524   0.875000000000000   1.0000000
N2   N   0.888892840473286   0.444449035634386   0.875000000000000   1.0000000
N2   N   0.055227457777091   0.444379282019646   0.375000000000000   1.0000000
N2   N   0.222164434816239   0.944328869632478   0.375000000000000   1.0000000
N2   N   0.555498311213103   0.944806492152810   0.375000000000000   1.0000000
N2   N   0.889308180939707   0.944806492152810   0.375000000000000   1.0000000
N2   N   0.722753433808488   0.443713007782612   0.375000000000000   1.0000000
N2   N   0.222221584441952   0.611113148077093   0.875000000000000   1.0000000
N2   N   0.055556758946573   0.111111592404181   0.875000000000000   1.0000000
N2   N   0.555555824150071   0.611111648300141   0.875000000000000   1.0000000
N2   N   0.388890138341615   0.111111727247405   0.875000000000000   1.0000000
N2   N   0.888891563635133   0.611113148077093   0.875000000000000   1.0000000
N2   N   0.055511178127351   0.611022356254703   0.375000000000000   1.0000000
N2   N   0.722220906426111   0.111112375857627   0.875000000000000   1.0000000
N2   N   0.222512083378078   0.111235353434700   0.375000000000000   1.0000000
N2   N   0.389693235222052   0.612139737762981   0.375000000000000   1.0000000
N2   N   0.722446502540923   0.612139737762981   0.375000000000000   1.0000000
N2   N   0.555398188171176   0.110266283657435   0.375000000000000   1.0000000
N2   N   0.388890428320629   0.611113612218718   0.875000000000000   1.0000000
N2   N   0.888860488241567   0.111135307384179   0.375000000000000   1.0000000
N2   N   0.222223307595817   0.777780000950813   0.875000000000000   1.0000000
N2   N   0.055558017547474   0.277780870358278   0.875000000000000   1.0000000
N2   N   0.388889499173007   0.277778998346019   0.875000000000000   1.0000000
N2   N   0.555556140326857   0.777779763599104   0.875000000000000   1.0000000
N2   N   0.888891767999689   0.777782645441274   0.875000000000000   1.0000000
N2   N   0.722222852810804   0.277780870358278   0.875000000000000   1.0000000
N2   N   0.055492176164342   0.777623220791480   0.375000000000000   1.0000000
N2   N   0.388856725039156   0.778253256351279   0.375000000000000   1.0000000
N2   N   0.219738510307834   0.275559030308845   0.375000000000000   1.0000000
N2   N   0.723637770603051   0.779649674594696   0.375000000000000   1.0000000
N2   N   0.555820520001011   0.275559030308845   0.375000000000000   1.0000000
N2   N   0.888859523716376   0.277719047432761   0.375000000000000   1.0000000
N2   N   0.055556195161098   0.444449035634386   0.875000000000000   1.0000000
N2   N   0.222223049331656   0.944446098663312   0.875000000000000   1.0000000
N2   N   0.555555185775707   0.944447834195098   0.875000000000000   1.0000000
N2   N   0.388891196463692   0.444452361730930   0.875000000000000   1.0000000
N2   N   0.888892648419391   0.944447834195098   0.875000000000000   1.0000000
N2   N   0.055862889886096   0.944545193683271   0.375000000000000   1.0000000
N2   N   0.722225513876395   0.444449175097746   0.875000000000000   1.0000000
N2   N   0.388682303797175   0.944545193683271   0.375000000000000   1.0000000
N2   N   0.220959573974125   0.443713007782612   0.375000000000000   1.0000000
N2   N   0.222418212115185   0.610904529397635   0.375000000000000   1.0000000
N2   N   0.722577559550893   0.945155119101788   0.375000000000000   1.0000000
N2   N   0.889151824242556   0.444379282019646   0.375000000000000   1.0000000
N2   N   0.055555845550027   0.611111691100054   0.875000000000000   1.0000000
N2   N   0.222221588905783   0.111111727247405   0.875000000000000   1.0000000
N2   N   0.722223183898081   0.611113612218718   0.875000000000000   1.0000000
N2   N   0.555554833457609   0.111111592404181   0.875000000000000   1.0000000
N2   N   0.888891469431507   0.111112375857627   0.875000000000000   1.0000000
B2   B   0.111205774843486   0.055509310473425   0.375000000000000   1.0000000
B2   B   0.611424587206723   0.559395348173275   0.375000000000000   1.0000000
B2   B   0.444303535629938   0.055509310473425   0.375000000000000   1.0000000
B2   B   0.944330650911299   0.555468619217773   0.375000000000000   1.0000000
B2   B   0.777936356996939   0.055872713993878   0.375000000000000   1.0000000
B2   B   0.111111198902797   0.722222397805587   0.875000000000000   1.0000000
B2   B   0.444445739104824   0.722219722436423   0.875000000000000   1.0000000
B2   B   0.277786803898955   0.222232404258366   0.875000000000000   1.0000000
B2   B   0.777773983331599   0.722219722436423   0.875000000000000   1.0000000
B2   B   0.611109589328975   0.222228558024125   0.875000000000000   1.0000000
B2   B   0.944447951863387   0.222226236860346   0.875000000000000   1.0000000
B2   B   0.277777583175648   0.722146321486507   0.375000000000000   1.0000000
B2   B   0.109209448894890   0.220707319591379   0.375000000000000   1.0000000
B2   B   0.444966226867159   0.222236539876469   0.375000000000000   1.0000000
B2   B   0.612981000477868   0.725962000955729   0.375000000000000   1.0000000
B2   B   0.944368738310860   0.722146321486507   0.375000000000000   1.0000000
B2   B   0.777962648623294   0.222056827031803   0.375000000000000   1.0000000
B2   B   0.111110858193595   0.888890726661126   0.875000000000000   1.0000000
B2   B   0.444446145592695   0.888889705984115   0.875000000000000   1.0000000
B2   B   0.277790702803303   0.388899833023376   0.875000000000000   1.0000000
B2   B   0.611109130220080   0.388899833023376   0.875000000000000   1.0000000
B2   B   0.777776391382720   0.888886298703872   0.875000000000000   1.0000000
B2   B   0.944447316444356   0.388894632888713   0.875000000000000   1.0000000
B2   B   0.110263387132214   0.388582337080992   0.375000000000000   1.0000000
B2   B   0.277633588010545   0.888729377146927   0.375000000000000   1.0000000
B2   B   0.611495395232678   0.890081941149819   0.375000000000000   1.0000000
B2   B   0.944816299765901   0.889214657348665   0.375000000000000   1.0000000
B2   B   0.778318949948785   0.388582337080992   0.375000000000000   1.0000000
B2   B   0.277783999547374   0.555558353820065   0.875000000000000   1.0000000
B2   B   0.111113302157350   0.055558863829776   0.875000000000000   1.0000000
B2   B   0.611106778671152   0.555553709388192   0.875000000000000   1.0000000
B2   B   0.444445561672426   0.055558863829776   0.875000000000000   1.0000000
B2   B   0.944444726928267   0.555558095638531   0.875000000000000   1.0000000
B2   B   0.111137968306474   0.555468619217773   0.375000000000000   1.0000000
B2   B   0.777777628346511   0.055555256693021   0.875000000000000   1.0000000
B2   B   0.277689359338312   0.055378718676625   0.375000000000000   1.0000000
B2   B   0.447970760966552   0.559395348173275   0.375000000000000   1.0000000
B2   B   0.777178535375963   0.555265567508514   0.375000000000000   1.0000000
B2   B   0.611214469858637   0.055392439135444   0.375000000000000   1.0000000
B2   B   0.444446930717042   0.555553709388192   0.875000000000000   1.0000000
B2   B   0.944177969276807   0.055392439135444   0.375000000000000   1.0000000
B2   B   0.277780600496211   0.722223084808307   0.875000000000000   1.0000000
B2   B   0.111118968695157   0.222228558024125   0.875000000000000   1.0000000
B2   B   0.444445600359411   0.222232404258366   0.875000000000000   1.0000000
B2   B   0.611107624584553   0.722215249169098   0.875000000000000   1.0000000
B2   B   0.944442484312096   0.722223084808307   0.875000000000000   1.0000000
B2   B   0.777778284996959   0.222226236860346   0.875000000000000   1.0000000
B2   B   0.111041289257217   0.722082578514426   0.375000000000000   1.0000000
B2   B   0.444817313379640   0.723268078617210   0.375000000000000   1.0000000
B2   B   0.277270313009310   0.222236539876469   0.375000000000000   1.0000000
B2   B   0.778450765237570   0.723268078617210   0.375000000000000   1.0000000
B2   B   0.611497870696496   0.220707319591379   0.375000000000000   1.0000000
B2   B   0.944094178408509   0.222056827031803   0.375000000000000   1.0000000
B2   B   0.111118402333544   0.388896221128778   0.875000000000000   1.0000000
B2   B   0.277779868467539   0.888890726661126   0.875000000000000   1.0000000
B2   B   0.611109907321161   0.888886298703872   0.875000000000000   1.0000000
B2   B   0.444450630175050   0.388901260350100   0.875000000000000   1.0000000
B2   B   0.944443560391419   0.888889705984115   0.875000000000000   1.0000000
B2   B   0.111095789136389   0.888729377146927   0.375000000000000   1.0000000
B2   B   0.777777818795242   0.388896221128778   0.875000000000000   1.0000000
B2   B   0.444398357582764   0.889214657348665   0.375000000000000   1.0000000
B2   B   0.273703961490150   0.385686488865897   0.375000000000000   1.0000000
B2   B   0.278087032132550   0.555265567508514   0.375000000000000   1.0000000
B2   B   0.611982527375753   0.385686488865897   0.375000000000000   1.0000000
B2   B   0.778586545917147   0.890081941149819   0.375000000000000   1.0000000
B2   B   0.944400822611182   0.388801645222363   0.375000000000000   1.0000000
B2   B   0.111113368710265   0.555558095638531   0.875000000000000   1.0000000
B2   B   0.277779809732435   0.055559619464871   0.875000000000000   1.0000000
B2   B   0.777774354272692   0.555558353820065   0.875000000000000   1.0000000
B2   B   0.611110162373316   0.055556467974423   0.875000000000000   1.0000000
B2   B   0.944446305601106   0.055556467974423   0.875000000000000   1.0000000
B2   B   0.055549111030094   0.111108123114202   0.125007166286923   1.0000000
B2   B   0.555540187775774   0.611080375551550   0.125019752477818   1.0000000
B2   B   0.388894085291297   0.111113453665895   0.125002972322434   1.0000000
B2   B   0.888863559643525   0.611094053971612   0.125021814011196   1.0000000
B2   B   0.722224177808276   0.111111196286625   0.124993269018285   1.0000000
B2   B   0.055542458186152   0.777762893286496   0.625000374373555   1.0000000
B2   B   0.388896782394218   0.777759014197297   0.624989012837477   1.0000000
B2   B   0.222230847034715   0.277785987549986   0.625079719030336   1.0000000
B2   B   0.722203272379531   0.777761440596554   0.624992390212750   1.0000000
B2   B   0.555555140515271   0.277785987549986   0.625079719030336   1.0000000
B2   B   0.888891218797172   0.277782437594351   0.625006162052849   1.0000000
B2   B   0.222220435100344   0.777762893286496   0.124999625626445   1.0000000
B2   B   0.055557180482136   0.277783582196191   0.125003351840766   1.0000000
B2   B   0.388915414546623   0.277830829093253   0.124495977725499   1.0000000
B2   B   0.555558168217024   0.777761440596554   0.125007609787249   1.0000000
B2   B   0.888862231803072   0.777759014197297   0.125010987162524   1.0000000
B2   B   0.722226401714054   0.277783582196191   0.125003351840766   1.0000000
B2   B   0.055541784929971   0.944432489602451   0.624998093147273   1.0000000
B2   B   0.388890704672481   0.944432489602451   0.624998093147273   1.0000000
B2   B   0.222240846911261   0.444427652403987   0.624985959380690   1.0000000
B2   B   0.555460582611761   0.444388836911403   0.625340601845042   1.0000000
B2   B   0.722220610479543   0.944441220959085   0.625006848216323   1.0000000
B2   B   0.888880401547148   0.444438955491272   0.624995408440589   1.0000000
B2   B   0.055558553944124   0.444438955491272   0.125004591559410   1.0000000
B2   B   0.222216864654714   0.944433729309428   0.124997818238723   1.0000000
B2   B   0.555558205364158   0.944436883531639   0.124995743969107   1.0000000
B2   B   0.388928254299643   0.444388836911403   0.124659398154957   1.0000000
B2   B   0.888878678167480   0.944436883531639   0.124995743969107   1.0000000
B2   B   0.722186805492725   0.444427652403987   0.125014040619310   1.0000000
B2   B   0.222230494328079   0.611094053971612   0.624978185988803   1.0000000
B2   B   0.055549111030094   0.111108123114202   0.624992833713078   1.0000000
B2   B   0.555540187775774   0.611080375551550   0.624980247522182   1.0000000
B2   B   0.388894085291297   0.111113453665895   0.624997027677567   1.0000000
B2   B   0.888863559643525   0.611094053971612   0.624978185988803   1.0000000
B2   B   0.055549734208525   0.611099468417051   0.125001268085875   1.0000000
B2   B   0.722224177808276   0.111111196286625   0.625006730981715   1.0000000
B2   B   0.222219368374591   0.111113453665895   0.125002972322434   1.0000000
B2   B   0.388906778826687   0.611077213267974   0.125060903585105   1.0000000
B2   B   0.722170434441280   0.611077213267974   0.125060903585105   1.0000000
B2   B   0.555559012084107   0.111108123114202   0.125007166286923   1.0000000
B2   B   0.388906778826687   0.611077213267974   0.624939096414895   1.0000000
B2   B   0.888887018478342   0.111111196286625   0.124993269018285   1.0000000
B2   B   0.222220435100344   0.777762893286496   0.625000374373555   1.0000000
B2   B   0.055557180482136   0.277783582196191   0.624996648159234   1.0000000
B2   B   0.388915414546623   0.277830829093253   0.625504022274501   1.0000000
B2   B   0.555558168217024   0.777761440596554   0.624992390212750   1.0000000
B2   B   0.888862231803072   0.777759014197297   0.624989012837477   1.0000000
B2   B   0.722226401714054   0.277783582196191   0.624996648159234   1.0000000
B2   B   0.055542458186152   0.777762893286496   0.124999625626445   1.0000000
B2   B   0.388896782394218   0.777759014197297   0.125010987162524   1.0000000
B2   B   0.222230847034715   0.277785987549986   0.124920280969664   1.0000000
B2   B   0.722203272379531   0.777761440596554   0.125007609787249   1.0000000
B2   B   0.555555140515271   0.277785987549986   0.124920280969664   1.0000000
B2   B   0.888891218797172   0.277782437594351   0.124993837947151   1.0000000
B2   B   0.055558553944124   0.444438955491272   0.624995408440589   1.0000000
B2   B   0.222216864654714   0.944433729309428   0.625002181761277   1.0000000
B2   B   0.555558205364158   0.944436883531639   0.625004256030892   1.0000000
B2   B   0.388928254299643   0.444388836911403   0.625340601845042   1.0000000
B2   B   0.888878678167480   0.944436883531639   0.625004256030892   1.0000000
B2   B   0.055541784929971   0.944432489602451   0.125001906852727   1.0000000
B2   B   0.722186805492725   0.444427652403987   0.624985959380690   1.0000000
B2   B   0.388890704672481   0.944432489602451   0.125001906852727   1.0000000
B2   B   0.222240846911261   0.444427652403987   0.125014040619310   1.0000000
B2   B   0.222230494328079   0.611094053971612   0.125021814011196   1.0000000
B2   B   0.555460582611761   0.444388836911403   0.124659398154957   1.0000000
B2   B   0.722220610479543   0.944441220959085   0.124993151783678   1.0000000
B2   B   0.888880401547148   0.444438955491272   0.125004591559410   1.0000000
B2   B   0.055549734208525   0.611099468417051   0.624998731914124   1.0000000
B2   B   0.222219368374591   0.111113453665895   0.624997027677567   1.0000000
B2   B   0.722170434441280   0.611077213267974   0.624939096414895   1.0000000
B2   B   0.555559012084107   0.111108123114202   0.624992833713078   1.0000000
B2   B   0.888887018478342   0.111111196286625   0.625006730981715   1.0000000


