data_1
_audit_creation_method   'vasp2cif'
_cell_length_a    17.52789999999977
_cell_length_b    17.52789999999977
_cell_length_c    15.0
_cell_angle_alpha    90.0
_cell_angle_beta    90.0
_cell_angle_gamma    119.99999999999916

_symmetry_space_group_name_H-M    'P 1'
loop_
_atom_site_label
_atom_site_type_symbol
_atom_site_fract_x
_atom_site_fract_y
_atom_site_fract_z
_atom_site_occupancy
B2   B   0.905136511341748   0.952937233333810   0.111010562510842   1.0000000
B2   B   0.904685497895004   0.095316523300994   0.111028183708665   1.0000000
B2   B   0.904685497895004   0.237940280920000   0.111028183708665   1.0000000
B2   B   0.905136511341748   0.380772295889934   0.111010562510842   1.0000000
B2   B   0.906474773534227   0.523989157533277   0.111040538582927   1.0000000
B2   B   0.906164612095857   0.667368814989433   0.111064638957828   1.0000000
B2   B   0.906474773534227   0.811058633883948   0.111040538582927   1.0000000
B2   B   0.047685075965441   0.952316945230560   0.111011124675888   1.0000000
B2   B   0.047064787862184   0.094865509854256   0.111010562510842   1.0000000
B2   B   0.046877090051671   0.237725053966836   0.111004311880873   1.0000000
B2   B   0.047064787862184   0.380772295889934   0.111010562510842   1.0000000
B2   B   0.047685075965441   0.523942860173885   0.111011124675888   1.0000000
B2   B   0.048119109552744   0.666934872482087   0.111025964585486   1.0000000
B2   B   0.048119109552744   0.809758966509658   0.111025964585486   1.0000000
B2   B   0.190243054686334   0.951882911643253   0.111025964585486   1.0000000
B2   B   0.188943387312059   0.093527247661765   0.111040538582927   1.0000000
B2   B   0.188820091158527   0.236927807966221   0.111012233918843   1.0000000
B2   B   0.188820091158527   0.380465301074309   0.111012233918843   1.0000000
B2   B   0.188943387312059   0.523989157533277   0.111040538582927   1.0000000
B2   B   0.190243054686334   0.666934872482087   0.111025964585486   1.0000000
B2   B   0.190476437651000   0.809525583545003   0.110994212909331   1.0000000
B2   B   0.333067148714914   0.951882911643253   0.111025964585486   1.0000000
B2   B   0.332633206207568   0.093837409100137   0.111064638957828   1.0000000
B2   B   0.329360793295143   0.233864699430891   0.111012307823615   1.0000000
B2   B   0.330418141819285   0.379495579850140   0.111010181582057   1.0000000
B2   B   0.329360793295143   0.524069111746246   0.111012307823615   1.0000000
B2   B   0.332633206207568   0.667368814989433   0.111064638957828   1.0000000
B2   B   0.333067148714914   0.809758966509658   0.111025964585486   1.0000000
B2   B   0.476059161023121   0.952316945230560   0.111011124675888   1.0000000
B2   B   0.476012863663713   0.093527247661765   0.111040538582927   1.0000000
B2   B   0.475932909450743   0.233864699430891   0.111012307823615   1.0000000
B2   B   0.467868262234343   0.364307521153700   0.111155177808681   1.0000000
B2   B   0.467868262234343   0.532133758962653   0.111155177808681   1.0000000
B2   B   0.475932909450743   0.670641227901855   0.111012307823615   1.0000000
B2   B   0.476012863663713   0.811058633883948   0.111040538582927   1.0000000
B2   B   0.619229725306077   0.952937233333810   0.111010562510842   1.0000000
B2   B   0.619229725306077   0.094865509854256   0.111010562510842   1.0000000
B2   B   0.619536720121685   0.236927807966221   0.111012233918843   1.0000000
B2   B   0.620506441345868   0.379495579850140   0.111010181582057   1.0000000
B2   B   0.635694500042306   0.532133758962653   0.111155177808681   1.0000000
B2   B   0.620506441345868   0.669583879377711   0.111010181582057   1.0000000
B2   B   0.619536720121685   0.811181930037479   0.111012233918843   1.0000000
B2   B   0.762276967229162   0.953124931144328   0.111004311880873   1.0000000
B2   B   0.762061740275997   0.095316523300994   0.111028183708665   1.0000000
B2   B   0.762276967229162   0.237725053966836   0.111004311880873   1.0000000
B2   B   0.763074213229781   0.380465301074309   0.111012233918843   1.0000000
B2   B   0.766137321765127   0.524069111746246   0.111012307823615   1.0000000
B2   B   0.766137321765127   0.670641227901855   0.111012307823615   1.0000000
B2   B   0.763074213229781   0.811181930037479   0.111012233918843   1.0000000
N2   N   0.953091356054531   0.905684076025509   0.110992572152652   1.0000000
N2   N   0.952213569247142   0.047787832670867   0.110997272902375   1.0000000
N2   N   0.951989730812047   0.190279662782524   0.110995927458231   1.0000000
N2   N   0.952213569247142   0.332995331329272   0.110997272902375   1.0000000
N2   N   0.953091356054531   0.475978586338015   0.110992572152652   1.0000000
N2   N   0.953414689568818   0.619321863966318   0.111029697325788   1.0000000
N2   N   0.953414689568818   0.762664131912527   0.111029697325788   1.0000000
N2   N   0.095291749363817   0.904709652554169   0.110993010600289   1.0000000
N2   N   0.094317325892485   0.046910045863477   0.110992572152652   1.0000000
N2   N   0.094006211907313   0.189799245216151   0.110981219903680   1.0000000
N2   N   0.094006211907313   0.332778273000167   0.110981219903680   1.0000000
N2   N   0.094317325892485   0.475978586338015   0.110992572152652   1.0000000
N2   N   0.095291749363817   0.619155114675621   0.110993010600289   1.0000000
N2   N   0.095547893372179   0.762060455619092   0.110989530825944   1.0000000
N2   N   0.237940946298914   0.904453508545818   0.110989530825944   1.0000000
N2   N   0.237337270005482   0.046586712349173   0.111029697325788   1.0000000
N2   N   0.235025029054921   0.187789913373391   0.111010387957944   1.0000000
N2   N   0.235624777019976   0.332098041664482   0.110994477330932   1.0000000
N2   N   0.235025029054921   0.475806421990520   0.111010387957944   1.0000000
N2   N   0.237337270005482   0.619321863966318   0.111029697325788   1.0000000
N2   N   0.237940946298914   0.762060455619092   0.110989530825944   1.0000000
N2   N   0.380846287242367   0.904709652554169   0.110993010600289   1.0000000
N2   N   0.380679537951696   0.046586712349173   0.111029697325788   1.0000000
N2   N   0.379818394522450   0.188206693436910   0.111018656925329   1.0000000
N2   N   0.374452990503131   0.327495774811246   0.111000978912372   1.0000000
N2   N   0.374452990503131   0.475528522000880   0.111000978912372   1.0000000
N2   N   0.379818394522450   0.620183007395550   0.111018656925329   1.0000000
N2   N   0.380679537951696   0.762664131912527   0.111029697325788   1.0000000
N2   N   0.524022815578984   0.905684076025509   0.110992572152652   1.0000000
N2   N   0.524022815578984   0.046910045863477   0.110992572152652   1.0000000
N2   N   0.524194979926483   0.187789913373391   0.111010387957944   1.0000000
N2   N   0.524472879916120   0.327495774811246   0.111000978912372   1.0000000
N2   N   0.524472879916120   0.625548411414864   0.111000978912372   1.0000000
N2   N   0.524194979926483   0.764976372863098   0.111010387957944   1.0000000
N2   N   0.667223128916830   0.905995190010697   0.110981219903680   1.0000000
N2   N   0.667006070587716   0.047787832670867   0.110997272902375   1.0000000
N2   N   0.667223128916830   0.189799245216151   0.110981219903680   1.0000000
N2   N   0.667903360252514   0.332098041664482   0.110994477330932   1.0000000
N2   N   0.672505627105757   0.475528522000880   0.111000978912372   1.0000000
N2   N   0.672505627105757   0.625548411414864   0.111000978912372   1.0000000
N2   N   0.667903360252514   0.764376624898037   0.110994477330932   1.0000000
N2   N   0.810202156701834   0.905995190010697   0.110981219903680   1.0000000
N2   N   0.809721739135484   0.048011671105966   0.110995927458231   1.0000000
N2   N   0.809721739135484   0.190279662782524   0.110995927458231   1.0000000
N2   N   0.810202156701834   0.332778273000167   0.110981219903680   1.0000000
N2   N   0.812211488544605   0.475806421990520   0.111010387957944   1.0000000
N2   N   0.811794708481092   0.620183007395550   0.111018656925329   1.0000000
N2   N   0.812211488544605   0.764976372863098   0.111010387957944   1.0000000
S2   S   0.523810499174999   0.476190902741997   0.111479521074449   1.0000000


