data_1
_audit_creation_method   'vasp2cif'
_cell_length_a    14.93631414619966
_cell_length_b    14.936314146199727
_cell_length_c    13.341276283792837
_cell_angle_alpha    90.0
_cell_angle_beta    90.0
_cell_angle_gamma    119.99999999999984

_symmetry_space_group_name_H-M    'P 1'
loop_
_atom_site_label
_atom_site_type_symbol
_atom_site_fract_x
_atom_site_fract_y
_atom_site_fract_z
_atom_site_occupancy
Ge2   Ge   0.495285169046154   0.414309251189741   0.375000000000000   1.0000000
N2   N   0.111254997687279   0.055618968726323   0.124931752430328   1.0000000
N2   N   0.611271747590077   0.555695531461264   0.124416719564492   1.0000000
N2   N   0.444573029478135   0.055587254436131   0.124905774427144   1.0000000
N2   N   0.944542468824763   0.555604228068250   0.125057864001405   1.0000000
N2   N   0.777936890742775   0.055635112038055   0.124985198139393   1.0000000
N2   N   0.111206076448276   0.722269704890803   0.624981400276961   1.0000000
N2   N   0.444573029478135   0.722319108375339   0.625094225572855   1.0000000
N2   N   0.277941882700767   0.222283845108006   0.624742124679202   1.0000000
N2   N   0.777910058870453   0.722309274470495   0.625198017796234   1.0000000
N2   N   0.611244366896773   0.222239806980743   0.625335232044633   1.0000000
N2   N   0.944608877359920   0.222302907488211   0.625002971998824   1.0000000
N2   N   0.277886265020503   0.722285118011637   0.125007894802473   1.0000000
N2   N   0.111296791871461   0.222315062602395   0.124996739798802   1.0000000
N2   N   0.444591659322359   0.222248790962840   0.125035962966470   1.0000000
N2   N   0.611244366896773   0.722337893249351   0.124664767955368   1.0000000
N2   N   0.944542468824763   0.722271574089850   0.125057864001405   1.0000000
N2   N   0.777923971092588   0.222278317240973   0.124945981555704   1.0000000
N2   N   0.111218101105051   0.888935320616046   0.624991866326250   1.0000000
N2   N   0.444567075657413   0.888950204495370   0.624973746010838   1.0000000
N2   N   0.277941882700767   0.388991370926090   0.624742124679202   1.0000000
N2   N   0.611271747590077   0.388909549462142   0.625583280435509   1.0000000
N2   N   0.777923971092588   0.888978987184950   0.625054018444304   1.0000000
N2   N   0.944576865422854   0.388949538532799   0.624977920164455   1.0000000
N2   N   0.111254997687279   0.388969362294291   0.124931752430328   1.0000000
N2   N   0.277886265020503   0.888934480342194   0.125007894802473   1.0000000
N2   N   0.611253948787572   0.888981790222474   0.124954247036863   1.0000000
N2   N   0.444670049840893   0.389001691587111   0.127348835844341   1.0000000
N2   N   0.944576865422854   0.888960660223384   0.125022079835544   1.0000000
N2   N   0.777910058870453   0.388934117733284   0.124801982203767   1.0000000
N2   N   0.277905298487152   0.555640765878988   0.625025821442632   1.0000000
N2   N   0.111254997687279   0.055618968726323   0.625068247569671   1.0000000
N2   N   0.611271747590077   0.555695531461264   0.625583280435509   1.0000000
N2   N   0.444573029478135   0.055587254436131   0.625094225572855   1.0000000
N2   N   0.944542468824763   0.555604228068250   0.624942135998597   1.0000000
N2   N   0.111218101105051   0.555616113822335   0.125008133673749   1.0000000
N2   N   0.777936890742775   0.055635112038055   0.625014801860606   1.0000000
N2   N   0.277905298487152   0.055597865941499   0.124974178557367   1.0000000
N2   N   0.444591659322359   0.555676201692862   0.125035962966470   1.0000000
N2   N   0.777870800936162   0.555602067134745   0.124809055485813   1.0000000
N2   N   0.611253948787572   0.055605491898426   0.124954247036863   1.0000000
N2   N   0.444591659322359   0.555676201692862   0.624964037033529   1.0000000
N2   N   0.944608877359920   0.055639303205045   0.124997028001176   1.0000000
N2   N   0.277886265020503   0.722285118011637   0.624992105197526   1.0000000
N2   N   0.111296791871461   0.222315062602395   0.625003260201199   1.0000000
N2   N   0.444591659322359   0.222248790962840   0.624964037033529   1.0000000
N2   N   0.611244366896773   0.722337893249351   0.625335232044633   1.0000000
N2   N   0.944542468824763   0.722271574089850   0.624942135998597   1.0000000
N2   N   0.777923971092588   0.222278317240973   0.625054018444304   1.0000000
N2   N   0.111206076448276   0.722269704890803   0.125018599723039   1.0000000
N2   N   0.444573029478135   0.722319108375339   0.124905774427144   1.0000000
N2   N   0.277941882700767   0.222283845108006   0.125257875320797   1.0000000
N2   N   0.777910058870453   0.722309274470495   0.124801982203767   1.0000000
N2   N   0.611244366896773   0.222239806980743   0.124664767955368   1.0000000
N2   N   0.944608877359920   0.222302907488211   0.124997028001176   1.0000000
N2   N   0.111254997687279   0.388969362294291   0.625068247569671   1.0000000
N2   N   0.277886265020503   0.888934480342194   0.624992105197526   1.0000000
N2   N   0.611253948787572   0.888981790222474   0.625045752963136   1.0000000
N2   N   0.444670049840893   0.389001691587111   0.622651164155660   1.0000000
N2   N   0.944576865422854   0.888960660223384   0.624977920164455   1.0000000
N2   N   0.111218101105051   0.888935320616046   0.125008133673749   1.0000000
N2   N   0.777910058870453   0.388934117733284   0.625198017796234   1.0000000
N2   N   0.444567075657413   0.888950204495370   0.125026253989155   1.0000000
N2   N   0.277941882700767   0.388991370926090   0.125257875320797   1.0000000
N2   N   0.277905298487152   0.555640765878988   0.124974178557367   1.0000000
N2   N   0.611271747590077   0.388909549462142   0.124416719564492   1.0000000
N2   N   0.777923971092588   0.888978987184950   0.124945981555704   1.0000000
N2   N   0.944576865422854   0.388949538532799   0.125022079835544   1.0000000
N2   N   0.111218101105051   0.555616113822335   0.624991866326250   1.0000000
N2   N   0.277905298487152   0.055597865941499   0.625025821442632   1.0000000
N2   N   0.777870800936162   0.555602067134745   0.625190944514187   1.0000000
N2   N   0.611253948787572   0.055605491898426   0.625045752963136   1.0000000
N2   N   0.944608877359920   0.055639303205045   0.625002971998824   1.0000000
N2   N   0.057657339210589   0.112419836559157   0.375000000000000   1.0000000
N2   N   0.554576710192468   0.622271201451270   0.375000000000000   1.0000000
N2   N   0.386481358920126   0.104747586286144   0.375000000000000   1.0000000
N2   N   0.882302867036312   0.607818100184825   0.375000000000000   1.0000000
N2   N   0.723023570048584   0.110337260771003   0.375000000000000   1.0000000
N2   N   0.055619718125007   0.777810935124400   0.875000000000000   1.0000000
N2   N   0.388956048637904   0.777810817613158   0.875000000000000   1.0000000
N2   N   0.222290140663707   0.277811736998521   0.875000000000000   1.0000000
N2   N   0.722288674539626   0.777810423004402   0.875000000000000   1.0000000
N2   N   0.555618907940858   0.277809815021011   0.875000000000000   1.0000000
N2   N   0.888957028570491   0.277812305471405   0.875000000000000   1.0000000
N2   N   0.218471822462206   0.775902577897771   0.375000000000000   1.0000000
N2   N   0.057657339210589   0.278570835984767   0.375000000000000   1.0000000
N2   N   0.391530298202020   0.272402782757088   0.375000000000000   1.0000000
N2   N   0.554543464282742   0.782398544127585   0.375000000000000   1.0000000
N2   N   0.886453639916538   0.777262965204592   0.375000000000000   1.0000000
N2   N   0.722377459662561   0.274764270018743   0.375000000000000   1.0000000
N2   N   0.055620753430426   0.944477938937037   0.875000000000000   1.0000000
N2   N   0.388956048637904   0.944478564358081   0.875000000000000   1.0000000
N2   N   0.222288167591290   0.444474695344866   0.875000000000000   1.0000000
N2   N   0.555611791493867   0.444472562413598   0.875000000000000   1.0000000
N2   N   0.722287579652955   0.944477146589504   0.875000000000000   1.0000000
N2   N   0.888957245074797   0.444477527786486   0.875000000000000   1.0000000
N2   N   0.054590735880559   0.444026448736307   0.375000000000000   1.0000000
N2   N   0.219121726127827   0.941578369317737   0.375000000000000   1.0000000
N2   N   0.554532693665515   0.943933013499423   0.375000000000000   1.0000000
N2   N   0.391530298202020   0.452460848778268   0.375000000000000   1.0000000
N2   N   0.889924700828332   0.945912510655157   0.375000000000000   1.0000000
N2   N   0.716556702330901   0.438956889782561   0.375000000000000   1.0000000
N2   N   0.222287819019574   0.611141353378597   0.875000000000000   1.0000000
N2   N   0.055621654978118   0.111144069110268   0.875000000000000   1.0000000
N2   N   0.555618907940858   0.611142426253184   0.875000000000000   1.0000000
N2   N   0.388957605429489   0.111149964133902   0.875000000000000   1.0000000
N2   N   0.888953642494712   0.611143487914027   0.875000000000000   1.0000000
N2   N   0.051289991411223   0.609334623303370   0.375000000000000   1.0000000
N2   N   0.722287579652955   0.111143766396788   0.875000000000000   1.0000000
N2   N   0.222665417462276   0.110406053838632   0.375000000000000   1.0000000
N2   N   0.386481358920126   0.615067105967333   0.375000000000000   1.0000000
N2   N   0.716556702330901   0.610933145881674   0.375000000000000   1.0000000
N2   N   0.554543464282742   0.105478253488492   0.375000000000000   1.0000000
N2   N   0.388957605429489   0.611140974628930   0.875000000000000   1.0000000
N2   N   0.890688902286830   0.112011117810087   0.375000000000000   1.0000000
N2   N   0.222287465239331   0.777810399286334   0.875000000000000   1.0000000
N2   N   0.055621654978118   0.277810919201186   0.875000000000000   1.0000000
N2   N   0.388958209647417   0.277818711829592   0.875000000000000   1.0000000
N2   N   0.555620346268165   0.777811085390398   0.875000000000000   1.0000000
N2   N   0.888957245074797   0.777813050621647   0.875000000000000   1.0000000
N2   N   0.722288674539626   0.277811584868561   0.875000000000000   1.0000000
N2   N   0.051289991411223   0.775288701441189   0.375000000000000   1.0000000
N2   N   0.386185299187259   0.778126753601400   0.375000000000000   1.0000000
N2   N   0.226241857655771   0.279787595494550   0.375000000000000   1.0000000
N2   N   0.722377459662561   0.780946522977152   0.375000000000000   1.0000000
N2   N   0.554576710192468   0.265638842074533   0.375000000000000   1.0000000
N2   N   0.889924700828332   0.277345523506509   0.375000000000000   1.0000000
N2   N   0.055620753430426   0.444476147826717   0.875000000000000   1.0000000
N2   N   0.222287819019574   0.944479798974305   0.875000000000000   1.0000000
N2   N   0.555619418521178   0.944476375927254   0.875000000000000   1.0000000
N2   N   0.388958209647417   0.444472831151168   0.875000000000000   1.0000000
N2   N   0.888957028570491   0.944478056432421   0.875000000000000   1.0000000
N2   N   0.054590735880559   0.943897620477573   0.375000000000000   1.0000000
N2   N   0.722287405627016   0.444476829765188   0.875000000000000   1.0000000
N2   N   0.386185299187259   0.941391878919194   0.375000000000000   1.0000000
N2   N   0.222665417462276   0.445592696956980   0.375000000000000   1.0000000
N2   N   0.219121726127827   0.610876690143419   0.375000000000000   1.0000000
N2   N   0.723023570048584   0.946019642610910   0.375000000000000   1.0000000
N2   N   0.886453639916538   0.442524008045283   0.375000000000000   1.0000000
N2   N   0.055619718125007   0.611142116333943   0.875000000000000   1.0000000
N2   N   0.222288167591290   0.111146805579759   0.875000000000000   1.0000000
N2   N   0.722287405627016   0.611143909195163   0.875000000000000   1.0000000
N2   N   0.555620346268165   0.111142594211096   0.875000000000000   1.0000000
N2   N   0.888956679319334   0.111145006326339   0.875000000000000   1.0000000
B2   B   0.111771165990033   0.055527986116434   0.375000000000000   1.0000000
B2   B   0.606519042084782   0.567155048854953   0.375000000000000   1.0000000
B2   B   0.443077103921554   0.051186698075917   0.375000000000000   1.0000000
B2   B   0.939914251603090   0.553523145883404   0.375000000000000   1.0000000
B2   B   0.779570080994925   0.056451707164131   0.375000000000000   1.0000000
B2   B   0.111177147551291   0.722255240442310   0.875000000000000   1.0000000
B2   B   0.444506673390484   0.722251008023529   0.875000000000000   1.0000000
B2   B   0.277835713739222   0.222254502012400   0.875000000000000   1.0000000
B2   B   0.777848503016713   0.722261682107249   0.875000000000000   1.0000000
B2   B   0.611175103363883   0.222250726639705   0.875000000000000   1.0000000
B2   B   0.944517642030886   0.222257023392210   0.875000000000000   1.0000000
B2   B   0.274861781187058   0.721621201685314   0.375000000000000   1.0000000
B2   B   0.114587720598331   0.223960526965830   0.375000000000000   1.0000000
B2   B   0.442486519721548   0.214041959866700   0.375000000000000   1.0000000
B2   B   0.611775427883921   0.730578983719524   0.375000000000000   1.0000000
B2   B   0.939914251603090   0.719724439053024   0.375000000000000   1.0000000
B2   B   0.779128790500354   0.220991073490508   0.375000000000000   1.0000000
B2   B   0.111178170956645   0.888927637581886   0.875000000000000   1.0000000
B2   B   0.444507957743410   0.888920645538369   0.875000000000000   1.0000000
B2   B   0.277835713739222   0.388914545060150   0.875000000000000   1.0000000
B2   B   0.611177734959816   0.388909643241472   0.875000000000000   1.0000000
B2   B   0.777849184018091   0.888928053537665   0.875000000000000   1.0000000
B2   B   0.944516987515842   0.388920261306960   0.875000000000000   1.0000000
B2   B   0.111771165990033   0.389576513206927   0.375000000000000   1.0000000
B2   B   0.274861781187058   0.886573912835078   0.375000000000000   1.0000000
B2   B   0.611664576946893   0.891611141311752   0.375000000000000   1.0000000
B2   B   0.943661782924111   0.888825775753173   0.375000000000000   1.0000000
B2   B   0.775551938378757   0.385827432853666   0.375000000000000   1.0000000
B2   B   0.277840174544326   0.555580002438664   0.875000000000000   1.0000000
B2   B   0.111179060986423   0.055593962726066   0.875000000000000   1.0000000
B2   B   0.611177734959816   0.555601425051665   0.875000000000000   1.0000000
B2   B   0.444506673390484   0.055588998700283   0.875000000000000   1.0000000
B2   B   0.944514738489273   0.555587800133243   0.875000000000000   1.0000000
B2   B   0.108136004705200   0.554843222507217   0.375000000000000   1.0000000
B2   B   0.777848938796313   0.055591136064824   0.875000000000000   1.0000000
B2   B   0.275636624889929   0.052399137982506   0.375000000000000   1.0000000
B2   B   0.442486519721548   0.561777893188184   0.375000000000000   1.0000000
B2   B   0.770098443481345   0.551715888407340   0.375000000000000   1.0000000
B2   B   0.611664576946893   0.053386768968462   0.375000000000000   1.0000000
B2   B   0.444503485197893   0.555582283984728   0.875000000000000   1.0000000
B2   B   0.946577159244918   0.057036491787527   0.375000000000000   1.0000000
B2   B   0.277841713199725   0.722251135037454   0.875000000000000   1.0000000
B2   B   0.111179179177517   0.222256256255419   0.875000000000000   1.0000000
B2   B   0.444503485197893   0.222254534546500   0.875000000000000   1.0000000
B2   B   0.611175103363883   0.722257710057506   0.875000000000000   1.0000000
B2   B   0.944514738489273   0.722260271689366   0.875000000000000   1.0000000
B2   B   0.777849184018091   0.222254463813746   0.875000000000000   1.0000000
B2   B   0.107214952709416   0.720274143021373   0.375000000000000   1.0000000
B2   B   0.443077103921554   0.725223739178971   0.375000000000000   1.0000000
B2   B   0.281232133242798   0.222762314703916   0.375000000000000   1.0000000
B2   B   0.775551938378757   0.723057838858413   0.375000000000000   1.0000000
B2   B   0.611775427883921   0.214529777497726   0.375000000000000   1.0000000
B2   B   0.946577159244918   0.222874000790725   0.375000000000000   1.0000000
B2   B   0.111179060986423   0.388918431593685   0.875000000000000   1.0000000
B2   B   0.277841713199725   0.888923911495600   0.875000000000000   1.0000000
B2   B   0.611176879023631   0.888923220869690   0.875000000000000   1.0000000
B2   B   0.444485267537544   0.388909300435436   0.875000000000000   1.0000000
B2   B   0.944516987515842   0.888930059542210   0.875000000000000   1.0000000
B2   B   0.108136004705200   0.886626115531305   0.375000000000000   1.0000000
B2   B   0.777848503016713   0.388920154242793   0.875000000000000   1.0000000
B2   B   0.442999291375809   0.888166312354569   0.375000000000000   1.0000000
B2   B   0.281232133242798   0.391803151872210   0.375000000000000   1.0000000
B2   B   0.275636624889929   0.556570820240759   0.375000000000000   1.0000000
B2   B   0.606519042084782   0.372697326563157   0.375000000000000   1.0000000
B2   B   0.779128790500354   0.891471050343173   0.375000000000000   1.0000000
B2   B   0.943661782924111   0.388169340504265   0.375000000000000   1.0000000
B2   B   0.111178170956645   0.555583866708087   0.875000000000000   1.0000000
B2   B   0.277840174544326   0.055593505439005   0.875000000000000   1.0000000
B2   B   0.777844920375887   0.555589126854613   0.875000000000000   1.0000000
B2   B   0.611176879023631   0.055586991487271   0.875000000000000   1.0000000
B2   B   0.944517642030886   0.055593951972013   0.875000000000000   1.0000000
B2   B   0.055738786860488   0.111210384272812   0.125010216704976   1.0000000
B2   B   0.555659971101548   0.611245557199159   0.124666339510831   1.0000000
B2   B   0.388992509357167   0.111115999436416   0.124963111175524   1.0000000
B2   B   0.889017275055051   0.611175304194198   0.124971478933522   1.0000000
B2   B   0.722369262389377   0.111164488829736   0.124964899469345   1.0000000
B2   B   0.055672397799557   0.777841694543352   0.624967925622460   1.0000000
B2   B   0.388993472700144   0.777845353917420   0.625015018932490   1.0000000
B2   B   0.222411251033982   0.277872292183659   0.624688401744731   1.0000000
B2   B   0.722357078430682   0.777887286178527   0.625235233599426   1.0000000
B2   B   0.555659971101548   0.277747747235719   0.625333660489169   1.0000000
B2   B   0.889048922607004   0.277836345396815   0.625004278744695   1.0000000
B2   B   0.222325389601788   0.777829361467558   0.125012208793312   1.0000000
B2   B   0.055738786860488   0.277861735921011   0.125010216704976   1.0000000
B2   B   0.388954745667602   0.277683067728391   0.126098949250785   1.0000000
B2   B   0.555676860320285   0.777883069327292   0.124839289511567   1.0000000
B2   B   0.889030434989018   0.777873142801261   0.124964449376886   1.0000000
B2   B   0.722357078430682   0.277803125585483   0.124764766400574   1.0000000
B2   B   0.055700277668871   0.944532144780553   0.624996542038315   1.0000000
B2   B   0.388993472700144   0.944481452116060   0.625015018932490   1.0000000
B2   B   0.222370144950030   0.444519639198945   0.624925600131893   1.0000000
B2   B   0.555857889345099   0.444595611339210   0.624919888666689   1.0000000
B2   B   0.722369262389377   0.944538106892977   0.625035100530656   1.0000000
B2   B   0.889030434989018   0.444490625521093   0.625035550623113   1.0000000
B2   B   0.055700277668871   0.444501466221647   0.125003457961684   1.0000000
B2   B   0.222335045891431   0.944499263200327   0.125004244842159   1.0000000
B2   B   0.555679556721284   0.944506445027306   0.124986015211526   1.0000000
B2   B   0.388954745667602   0.444605011272547   0.126098949250785   1.0000000
B2   B   0.889048922607004   0.944545910543525   0.124995721255306   1.0000000
B2   B   0.722387723604034   0.444491866091614   0.124547600266242   1.0000000
B2   B   0.222335045891431   0.611169116024431   0.624995755157842   1.0000000
B2   B   0.055738786860488   0.111210384272812   0.624989783295017   1.0000000
B2   B   0.555659971101548   0.611245557199159   0.625333660489169   1.0000000
B2   B   0.388992509357167   0.111115999436416   0.625036888824475   1.0000000
B2   B   0.889017275055051   0.611175304194198   0.625028521066478   1.0000000
B2   B   0.055672397799557   0.611164036589541   0.125032074377539   1.0000000
B2   B   0.722369262389377   0.111164488829736   0.625035100530656   1.0000000
B2   B   0.222370144950030   0.111183839084420   0.125074399868107   1.0000000
B2   B   0.388992509357167   0.611209843254100   0.124963111175524   1.0000000
B2   B   0.722387723604034   0.611229190845753   0.124547600266242   1.0000000
B2   B   0.555676860320285   0.111127124326330   0.124839289511567   1.0000000
B2   B   0.388992509357167   0.611209843254100   0.625036888824475   1.0000000
B2   B   0.889061008032828   0.111197170683086   0.125005988840479   1.0000000
B2   B   0.222325389601788   0.777829361467558   0.624987791206688   1.0000000
B2   B   0.055738786860488   0.277861735921011   0.624989783295017   1.0000000
B2   B   0.388954745667602   0.277683067728391   0.623901050749215   1.0000000
B2   B   0.555676860320285   0.777883069327292   0.625160710488433   1.0000000
B2   B   0.889030434989018   0.777873142801261   0.625035550623113   1.0000000
B2   B   0.722357078430682   0.277803125585483   0.625235233599426   1.0000000
B2   B   0.055672397799557   0.777841694543352   0.125032074377539   1.0000000
B2   B   0.388993472700144   0.777845353917420   0.124984981067510   1.0000000
B2   B   0.222411251033982   0.277872292183659   0.125311598255270   1.0000000
B2   B   0.722357078430682   0.777887286178527   0.124764766400574   1.0000000
B2   B   0.555659971101548   0.277747747235719   0.124666339510831   1.0000000
B2   B   0.889048922607004   0.277836345396815   0.124995721255306   1.0000000
B2   B   0.055700277668871   0.444501466221647   0.624996542038315   1.0000000
B2   B   0.222335045891431   0.944499263200327   0.624995755157842   1.0000000
B2   B   0.555679556721284   0.944506445027306   0.625013984788474   1.0000000
B2   B   0.388954745667602   0.444605011272547   0.623901050749215   1.0000000
B2   B   0.889048922607004   0.944545910543525   0.625004278744695   1.0000000
B2   B   0.055700277668871   0.944532144780553   0.125003457961684   1.0000000
B2   B   0.722387723604034   0.444491866091614   0.625452399733765   1.0000000
B2   B   0.388993472700144   0.944481452116060   0.124984981067510   1.0000000
B2   B   0.222370144950030   0.444519639198945   0.125074399868107   1.0000000
B2   B   0.222335045891431   0.611169116024431   0.125004244842159   1.0000000
B2   B   0.555857889345099   0.444595611339210   0.125080111333312   1.0000000
B2   B   0.722369262389377   0.944538106892977   0.124964899469345   1.0000000
B2   B   0.889030434989018   0.444490625521093   0.124964449376886   1.0000000
B2   B   0.055672397799557   0.611164036589541   0.624967925622460   1.0000000
B2   B   0.222370144950030   0.111183839084420   0.624925600131893   1.0000000
B2   B   0.722387723604034   0.611229190845753   0.625452399733765   1.0000000
B2   B   0.555676860320285   0.111127124326330   0.625160710488433   1.0000000
B2   B   0.889061008032828   0.111197170683086   0.624994011159522   1.0000000


