data_1
_audit_creation_method   'vasp2cif'
_cell_length_a    17.52789999999977
_cell_length_b    17.52789999999977
_cell_length_c    15.0
_cell_angle_alpha    90.0
_cell_angle_beta    90.0
_cell_angle_gamma    119.99999999999916

_symmetry_space_group_name_H-M    'P 1'
loop_
_atom_site_label
_atom_site_type_symbol
_atom_site_fract_x
_atom_site_fract_y
_atom_site_fract_z
_atom_site_occupancy
In2   In   0.497312555736835   0.502688846180162   0.111287328680454   1.0000000
B2   B   0.906493061217272   0.953677651144461   0.111000978247654   1.0000000
B2   B   0.904485248258667   0.095516772937329   0.111026307934328   1.0000000
B2   B   0.903870808811138   0.238151582034361   0.111038327772236   1.0000000
B2   B   0.904212431063385   0.381020146985756   0.110982254339229   1.0000000
B2   B   0.906252823018155   0.524175408385114   0.111040580895214   1.0000000
B2   B   0.908031148214100   0.667791244017053   0.111067106873969   1.0000000
B2   B   0.908664887199187   0.811794510003842   0.111022786771856   1.0000000
B2   B   0.048400233935161   0.951601787260842   0.111013716861888   1.0000000
B2   B   0.046324370051543   0.093508959978724   0.111000978247654   1.0000000
B2   B   0.045703876763579   0.236818949612840   0.110987939892050   1.0000000
B2   B   0.046200334762078   0.380239921814292   0.111015623032345   1.0000000
B2   B   0.047845887696495   0.523402346948213   0.111015004121940   1.0000000
B2   B   0.049357357381933   0.666381600137696   0.111064998609300   1.0000000
B2   B   0.049495592049629   0.809243419379986   0.111052496623032   1.0000000
B2   B   0.190758601816017   0.950506429146374   0.111052496623032   1.0000000
B2   B   0.188207511192155   0.091337133996802   0.111022786771856   1.0000000
B2   B   0.185818905511109   0.233146215930368   0.110978804642281   1.0000000
B2   B   0.187227000355876   0.378627007752144   0.111057474688140   1.0000000
B2   B   0.189516991619861   0.522632947563856   0.111086288140139   1.0000000
B2   B   0.191716595884698   0.665720413713764   0.111051217156424   1.0000000
B2   B   0.191632048685408   0.808369972510588   0.111020644217234   1.0000000
B2   B   0.333620421059295   0.950644663814064   0.111064998609300   1.0000000
B2   B   0.332210777179959   0.091970872981897   0.111067106873969   1.0000000
B2   B   0.327296038846757   0.230082509361204   0.110973572977829   1.0000000
B2   B   0.324028450735769   0.373478121911390   0.111052362643312   1.0000000
B2   B   0.330955519908237   0.520542826326272   0.111123055926941   1.0000000
B2   B   0.334846236041722   0.665155785155276   0.111116192303201   1.0000000
B2   B   0.334281607483235   0.808285425311305   0.111051217156424   1.0000000
B2   B   0.476599674248778   0.952156133499508   0.111015004121940   1.0000000
B2   B   0.475826612811884   0.093749198177848   0.111040580895214   1.0000000
B2   B   0.474322548641411   0.234262879999243   0.110998449760994   1.0000000
B2   B   0.464511058955945   0.364880706486711   0.111145165182380   1.0000000
B2   B   0.479459194870719   0.669046501288768   0.111123055926941   1.0000000
B2   B   0.477369073633142   0.810485029576136   0.111086288140139   1.0000000
B2   B   0.619762099381719   0.953801686433926   0.111015623032345   1.0000000
B2   B   0.618981874210254   0.095789590132603   0.110982254339229   1.0000000
B2   B   0.618451576346119   0.238251808930522   0.110969759984247   1.0000000
B2   B   0.618306969388162   0.381695051807841   0.111016084000984   1.0000000
B2   B   0.635121314709299   0.535490962241039   0.111145165182380   1.0000000
B2   B   0.626523899284607   0.675973570461229   0.111052362643312   1.0000000
B2   B   0.621375013443852   0.812775020840127   0.111057474688140   1.0000000
B2   B   0.763183071583178   0.954298144432425   0.110987939892050   1.0000000
B2   B   0.761850439161642   0.096131212384859   0.111038327772236   1.0000000
B2   B   0.761400494929809   0.238601526266187   0.111007151401003   1.0000000
B2   B   0.761750212265482   0.381550444849891   0.110969759984247   1.0000000
B2   B   0.765739141196760   0.525679472555580   0.110998449760994   1.0000000
B2   B   0.769919511834800   0.672705982350248   0.110973572977829   1.0000000
B2   B   0.766855805265642   0.814183115684887   0.110978804642281   1.0000000
N2   N   0.954266623951629   0.905965270245954   0.110977891347200   1.0000000
N2   N   0.952157310262958   0.047844091655040   0.110990966739749   1.0000000
N2   N   0.951073802198263   0.190231569562940   0.110994761242701   1.0000000
N2   N   0.951191388062870   0.333093374429067   0.110978056221761   1.0000000
N2   N   0.952722130377901   0.476067298584397   0.110963298411200   1.0000000
N2   N   0.954346183406487   0.619250038264923   0.111049100398580   1.0000000
N2   N   0.954902875705113   0.762702238538773   0.111032632910844   1.0000000
N2   N   0.096070328142181   0.903931073775811   0.110997044305987   1.0000000
N2   N   0.094036131672044   0.045734777966377   0.110977891347200   1.0000000
N2   N   0.091936275752978   0.187687212660575   0.110946974880555   1.0000000
N2   N   0.092525649588383   0.331709303159788   0.110991383972616   1.0000000
N2   N   0.094345978249764   0.475329854530857   0.111011323436556   1.0000000
N2   N   0.096352884974985   0.618491746577776   0.111016523559362   1.0000000
N2   N   0.096689160310206   0.761336787541107   0.111017655382402   1.0000000
N2   N   0.238664614376899   0.903312241607792   0.111017655382402   1.0000000
N2   N   0.237299163379233   0.045098526212900   0.111032632910844   1.0000000
N2   N   0.233486728083240   0.185124699657077   0.110945920611936   1.0000000
N2   N   0.230715304139077   0.326895177468435   0.110996573792264   1.0000000
N2   N   0.235119345606188   0.474047987049710   0.111089278238354   1.0000000
N2   N   0.238940608831736   0.618013307652060   0.111074121680547   1.0000000
N2   N   0.239127938294397   0.760873463623601   0.111003914383990   1.0000000
N2   N   0.381509655340230   0.903648516943007   0.111016523559362   1.0000000
N2   N   0.380751363653068   0.045655218511519   0.111049100398580   1.0000000
N2   N   0.378933110433633   0.186615790347419   0.110975339092370   1.0000000
N2   N   0.372129695183205   0.323579322186736   0.110957116634471   1.0000000
N2   N   0.367756131782858   0.465322558424363   0.111054986885964   1.0000000
N2   N   0.382465078294107   0.617536323623884   0.111114230009816   1.0000000
N2   N   0.381988094265939   0.761060793086262   0.111074121680547   1.0000000
N2   N   0.524671547386133   0.905655423668235   0.111011323436556   1.0000000
N2   N   0.523934103332599   0.047279271540111   0.110963298411200   1.0000000
N2   N   0.523196577730180   0.188860018825467   0.110962077178306   1.0000000
N2   N   0.521574707276184   0.329826089631485   0.110993615031139   1.0000000
N2   N   0.534678843492634   0.632245270135141   0.111054986885964   1.0000000
N2   N   0.525953414867280   0.764882056311832   0.111089278238354   1.0000000
N2   N   0.668292098757202   0.907475752329615   0.110991383972616   1.0000000
N2   N   0.666908027487922   0.048810013855143   0.110978056221761   1.0000000
N2   N   0.666266029882613   0.191117714919472   0.110939423486609   1.0000000
N2   N   0.665845669662834   0.334155732254162   0.110936064162549   1.0000000
N2   N   0.670175312285511   0.478426694640820   0.110993615031139   1.0000000
N2   N   0.676422079730262   0.627871706734801   0.110957116634471   1.0000000
N2   N   0.673106224448561   0.769286097778922   0.110996573792264   1.0000000
N2   N   0.812314189257424   0.908065126165035   0.110946974880555   1.0000000
N2   N   0.809769832355066   0.048927599719749   0.110994761242701   1.0000000
N2   N   0.808916149074042   0.191085252843950   0.111021595966238   1.0000000
N2   N   0.808883686998526   0.333735372034384   0.110939423486609   1.0000000
N2   N   0.811141383092531   0.476804824186817   0.110962077178306   1.0000000
N2   N   0.813385611570580   0.621068291484372   0.110975339092370   1.0000000
N2   N   0.814876702260922   0.766514673834773   0.110945920611936   1.0000000


