data_1
_audit_creation_method   'vasp2cif'
_cell_length_a    17.52789999999977
_cell_length_b    17.52789999999977
_cell_length_c    15.0
_cell_angle_alpha    90.0
_cell_angle_beta    90.0
_cell_angle_gamma    119.99999999999916

_symmetry_space_group_name_H-M    'P 1'
loop_
_atom_site_label
_atom_site_type_symbol
_atom_site_fract_x
_atom_site_fract_y
_atom_site_fract_z
_atom_site_occupancy
B2   B   0.905772322529047   0.953170667335520   0.111025778716127   1.0000000
B2   B   0.904718805334754   0.095282941357246   0.111046632860184   1.0000000
B2   B   0.904364683073734   0.237899068290151   0.111046275155025   1.0000000
B2   B   0.904712996111719   0.380863385380293   0.110989423633380   1.0000000
B2   B   0.905764984733782   0.524019932849766   0.111023504026138   1.0000000
B2   B   0.905528664756979   0.667057645990660   0.111084260551555   1.0000000
B2   B   0.905532925756208   0.809904904221222   0.111062236532319   1.0000000
B2   B   0.047771501229647   0.952230222135348   0.110996409764888   1.0000000
B2   B   0.046831048006482   0.094229397942960   0.111025778243125   1.0000000
B2   B   0.046211821874777   0.237075749694704   0.111000715357629   1.0000000
B2   B   0.046195389941795   0.380553883518569   0.110997548587194   1.0000000
B2   B   0.046829649516330   0.524027560407199   0.111001273925391   1.0000000
B2   B   0.047779550405189   0.666979823375875   0.111023571348368   1.0000000
B2   B   0.047894811721071   0.809665363801623   0.110984862127795   1.0000000
B2   B   0.190336385891376   0.952106951371939   0.110984860601798   1.0000000
B2   B   0.190096796814776   0.094468786951797   0.111062232408322   1.0000000
B2   B   0.187367216828010   0.234909496480166   0.111055584027841   1.0000000
B2   B   0.187088633475720   0.379247631515683   0.111043364397922   1.0000000
B2   B   0.187361530080054   0.523859198016187   0.111093144531578   1.0000000
B2   B   0.190092769311585   0.667045167588881   0.111072903640286   1.0000000
B2   B   0.190344866329467   0.809656828211532   0.110990310726282   1.0000000
B2   B   0.333021912329123   0.952222173428814   0.111023573762366   1.0000000
B2   B   0.332944067986340   0.094473075163023   0.111084256174555   1.0000000
B2   B   0.332791974244209   0.237000175459405   0.111095758753254   1.0000000
B2   B   0.326051116867942   0.374767294361307   0.111047956739726   1.0000000
B2   B   0.326055075659107   0.522738337594049   0.111038980347488   1.0000000
B2   B   0.332775020580430   0.667226682193571   0.111133407952614   1.0000000
B2   B   0.332956485731118   0.809908859531410   0.111072907173289   1.0000000
B2   B   0.475974127011801   0.953171931413667   0.111001279236393   1.0000000
B2   B   0.475981808656238   0.094236837942215   0.111023512719138   1.0000000
B2   B   0.476133266596793   0.234927327991199   0.111036418817678   1.0000000
B2   B   0.477267683988993   0.374766646193304   0.111082485960830   1.0000000
B2   B   0.477263446838947   0.673946781680896   0.111038980861494   1.0000000
B2   B   0.476142517773812   0.812640156987945   0.111093150268579   1.0000000
B2   B   0.619447855453441   0.953806294475206   0.110997550694195   1.0000000
B2   B   0.619138284967705   0.095288691170283   0.110989424719380   1.0000000
B2   B   0.619460452867989   0.237082193288816   0.110991725860576   1.0000000
B2   B   0.620734947220619   0.379266786988382   0.111029625544764   1.0000000
B2   B   0.625234922776694   0.522733983214008   0.111082480702828   1.0000000
B2   B   0.625234355093686   0.673950606848055   0.111047956452724   1.0000000
B2   B   0.620754111644316   0.812913135927279   0.111043360049919   1.0000000
B2   B   0.762925990833296   0.953789897652222   0.111000717583624   1.0000000
B2   B   0.762102627470850   0.095636993460264   0.111046277558024   1.0000000
B2   B   0.762108350210437   0.237893354969560   0.111050390118269   1.0000000
B2   B   0.762919629095184   0.380541302563012   0.110991717453577   1.0000000
B2   B   0.765074424184798   0.523868416210217   0.111036410853681   1.0000000
B2   B   0.763001483311593   0.667209706300788   0.111095767381253   1.0000000
B2   B   0.765092174943836   0.812634499853990   0.111055586501837   1.0000000
Ge2   Ge   0.476200497673729   0.523801157873267   0.110922870603573   1.0000000
N2   N   0.952827478409360   0.905014703627343   0.110995945883425   1.0000000
N2   N   0.952313128659048   0.047688588650951   0.111006179983165   1.0000000
N2   N   0.951599477070513   0.190097358442756   0.110999856962238   1.0000000
N2   N   0.951591381431077   0.332931099068286   0.110966319311311   1.0000000
N2   N   0.952311998647682   0.476052275976727   0.110957677024845   1.0000000
N2   N   0.952826508877284   0.619241385790201   0.111025791714170   1.0000000
N2   N   0.952918370785073   0.762174855535749   0.111024478224612   1.0000000
N2   N   0.095317789573184   0.904683962894818   0.110926996618020   1.0000000
N2   N   0.094987001810660   0.047174240405639   0.110995952380422   1.0000000
N2   N   0.093096609442657   0.188681774464680   0.110983308150312   1.0000000
N2   N   0.092789404441779   0.332109348730289   0.110963054905191   1.0000000
N2   N   0.093091546269405   0.475834358966598   0.110987562176879   1.0000000
N2   N   0.094985704962038   0.619241212708100   0.110991913651582   1.0000000
N2   N   0.095322603886136   0.762071533004715   0.110958572635778   1.0000000
N2   N   0.237930179156287   0.904679106871864   0.110958573527779   1.0000000
N2   N   0.237826873841256   0.047083398178924   0.111024470801614   1.0000000
N2   N   0.237285746397179   0.189396325309636   0.111048782326856   1.0000000
N2   N   0.232386721260851   0.328834502927143   0.111044550639945   1.0000000
N2   N   0.232386845127280   0.474967878937409   0.111062499415871   1.0000000
N2   N   0.237273268888575   0.619304671290564   0.111088386659603   1.0000000
N2   N   0.237832270207107   0.762169363987886   0.111025448472061   1.0000000
N2   N   0.380760458394900   0.905015920820961   0.110991917801585   1.0000000
N2   N   0.380760341396797   0.047175242042715   0.111025799462169   1.0000000
N2   N   0.380693848572931   0.189400266509537   0.111050723833571   1.0000000
N2   N   0.380471702498140   0.332385479951306   0.111063904891726   1.0000000
N2   N   0.362176032589905   0.466811643209881   0.110874967268740   1.0000000
N2   N   0.380466527648429   0.619535270310572   0.111061586766632   1.0000000
N2   N   0.380697067198432   0.762728437991423   0.111088391280604   1.0000000
N2   N   0.524167373261402   0.906910049246591   0.110987575954879   1.0000000
N2   N   0.523949382372272   0.047689663112321   0.110957677469851   1.0000000
N2   N   0.524172482397235   0.188692807026565   0.110970971683807   1.0000000
N2   N   0.525017981157009   0.328845681759737   0.111034837778580   1.0000000
N2   N   0.533201875371288   0.466799721253717   0.111017196795396   1.0000000
N2   N   0.533190016073120   0.637825649549095   0.110874968846741   1.0000000
N2   N   0.525033903675595   0.767615011200726   0.111062496599869   1.0000000
N2   N   0.667892441881708   0.907212343031222   0.110963052692191   1.0000000
N2   N   0.667070570662706   0.048410272817928   0.110966317843315   1.0000000
N2   N   0.667077413185212   0.190097965935257   0.110977797319600   1.0000000
N2   N   0.667888666871991   0.332113143677010   0.110963431989992   1.0000000
N2   N   0.671155982372255   0.474983734852989   0.111034817379580   1.0000000
N2   N   0.667616150692694   0.619529992046858   0.111063907526724   1.0000000
N2   N   0.671167163526854   0.767615036207147   0.111044543508945   1.0000000
N2   N   0.811319938051322   0.906905105591345   0.110983308526317   1.0000000
N2   N   0.809904366834246   0.048402232002484   0.110999866649237   1.0000000
N2   N   0.809525656382592   0.190475998309407   0.111050141293622   1.0000000
N2   N   0.809903772172740   0.332924271975791   0.110977791379605   1.0000000
N2   N   0.811309084528436   0.475829272052769   0.110970951172804   1.0000000
N2   N   0.810601454857463   0.619307855474070   0.111050739186573   1.0000000
N2   N   0.810605336784365   0.762715945386828   0.111048793622852   1.0000000


