data_1
_audit_creation_method   'vasp2cif'
_cell_length_a    14.93631414619966
_cell_length_b    14.936314146199727
_cell_length_c    13.341276283792837
_cell_angle_alpha    90.0
_cell_angle_beta    90.0
_cell_angle_gamma    119.99999999999984

_symmetry_space_group_name_H-M    'P 1'
loop_
_atom_site_label
_atom_site_type_symbol
_atom_site_fract_x
_atom_site_fract_y
_atom_site_fract_z
_atom_site_occupancy
Al2   Al   0.555555555555557   0.444444444444443   0.375000000000000   1.0000000
N2   N   0.111081436132281   0.055550791708470   0.124566559834901   1.0000000
N2   N   0.611212056631296   0.555757446595850   0.123258414701900   1.0000000
N2   N   0.444461354665680   0.055570675523133   0.125170544873292   1.0000000
N2   N   0.944429324477081   0.555538645334461   0.125170544873292   1.0000000
N2   N   0.777796371312476   0.055564852322900   0.124055731926847   1.0000000
N2   N   0.111103070662331   0.722218201997765   0.625264540326552   1.0000000
N2   N   0.444461354665680   0.722224012475935   0.624829455126686   1.0000000
N2   N   0.277702201535784   0.222189339267341   0.625054859641649   1.0000000
N2   N   0.777810660732405   0.722297798464025   0.625054859641649   1.0000000
N2   N   0.611153804398394   0.222189339267341   0.625054859641649   1.0000000
N2   N   0.944435147676963   0.222203628687585   0.625944268073051   1.0000000
N2   N   0.277781798002158   0.722218201997765   0.124735459673701   1.0000000
N2   N   0.111047073451876   0.222190203392575   0.124438774923344   1.0000000
N2   N   0.444453874883473   0.222241083100270   0.125360392193601   1.0000000
N2   N   0.611153804398394   0.722297798464025   0.124945140358102   1.0000000
N2   N   0.944429324477081   0.722224012475935   0.125170544873292   1.0000000
N2   N   0.777809796607378   0.222190203392575   0.124438774923344   1.0000000
N2   N   0.111103644210919   0.888896355789074   0.625290846406972   1.0000000
N2   N   0.444459378245000   0.888896355789074   0.625290846406972   1.0000000
N2   N   0.277702201535784   0.388846195601792   0.625054859641649   1.0000000
N2   N   0.611212056631296   0.388787943368739   0.626741585298125   1.0000000
N2   N   0.777809796607378   0.888952926548245   0.625561225076594   1.0000000
N2   N   0.944449208291352   0.388863977757060   0.625433440165014   1.0000000
N2   N   0.111081436132281   0.388863977757060   0.124566559834901   1.0000000
N2   N   0.277781798002158   0.888896929337644   0.124735459673701   1.0000000
N2   N   0.611136022242851   0.888918563867650   0.124566559834901   1.0000000
N2   N   0.444242553404066   0.388787943368739   0.123258414701900   1.0000000
N2   N   0.944449208291352   0.888918563867650   0.124566559834901   1.0000000
N2   N   0.777810660732405   0.388846195601792   0.124945140358102   1.0000000
N2   N   0.277775987524081   0.555538645334461   0.624829455126686   1.0000000
N2   N   0.111081436132281   0.055550791708470   0.625433440165014   1.0000000
N2   N   0.611212056631296   0.555757446595850   0.626741585298125   1.0000000
N2   N   0.444461354665680   0.055570675523133   0.624829455126686   1.0000000
N2   N   0.944429324477081   0.555538645334461   0.624829455126686   1.0000000
N2   N   0.111103644210919   0.555540621755134   0.124709153593096   1.0000000
N2   N   0.777796371312476   0.055564852322900   0.625944268073051   1.0000000
N2   N   0.277775987524081   0.055570675523133   0.125170544873292   1.0000000
N2   N   0.444453874883473   0.555546125116445   0.125360392193601   1.0000000
N2   N   0.777758916899718   0.555546125116445   0.125360392193601   1.0000000
N2   N   0.611136022242851   0.055550791708470   0.124566559834901   1.0000000
N2   N   0.444453874883473   0.555546125116445   0.624639607806490   1.0000000
N2   N   0.944435147676963   0.055564852322900   0.124055731926847   1.0000000
N2   N   0.277781798002158   0.722218201997765   0.625264540326552   1.0000000
N2   N   0.111047073451876   0.222190203392575   0.625561225076594   1.0000000
N2   N   0.444453874883473   0.222241083100270   0.624639607806490   1.0000000
N2   N   0.611153804398394   0.722297798464025   0.625054859641649   1.0000000
N2   N   0.944429324477081   0.722224012475935   0.624829455126686   1.0000000
N2   N   0.777809796607378   0.222190203392575   0.625561225076594   1.0000000
N2   N   0.111103070662331   0.722218201997765   0.124735459673701   1.0000000
N2   N   0.444461354665680   0.722224012475935   0.125170544873292   1.0000000
N2   N   0.277702201535784   0.222189339267341   0.124945140358102   1.0000000
N2   N   0.777810660732405   0.722297798464025   0.124945140358102   1.0000000
N2   N   0.611153804398394   0.222189339267341   0.124945140358102   1.0000000
N2   N   0.944435147676963   0.222203628687585   0.124055731926854   1.0000000
N2   N   0.111081436132281   0.388863977757060   0.625433440165014   1.0000000
N2   N   0.277781798002158   0.888896929337644   0.625264540326552   1.0000000
N2   N   0.611136022242851   0.888918563867650   0.625433440165014   1.0000000
N2   N   0.444242553404066   0.388787943368739   0.626741585298125   1.0000000
N2   N   0.944449208291352   0.888918563867650   0.625433440165014   1.0000000
N2   N   0.111103644210919   0.888896355789074   0.124709153593096   1.0000000
N2   N   0.777810660732405   0.388846195601792   0.625054859641649   1.0000000
N2   N   0.444459378245000   0.888896355789074   0.124709153593096   1.0000000
N2   N   0.277702201535784   0.388846195601792   0.124945140358102   1.0000000
N2   N   0.277775987524081   0.555538645334461   0.125170544873292   1.0000000
N2   N   0.611212056631296   0.388787943368739   0.123258414701900   1.0000000
N2   N   0.777809796607378   0.888952926548245   0.124438774923344   1.0000000
N2   N   0.944449208291352   0.388863977757060   0.124566559834901   1.0000000
N2   N   0.111103644210919   0.555540621755134   0.625290846406972   1.0000000
N2   N   0.277775987524081   0.055570675523133   0.624829455126686   1.0000000
N2   N   0.777758916899718   0.555546125116445   0.624639607806490   1.0000000
N2   N   0.611136022242851   0.055550791708470   0.625433440165014   1.0000000
N2   N   0.944435147676963   0.055564852322900   0.625944268073051   1.0000000
N2   N   0.054160680472353   0.110168577331546   0.375000000000000   1.0000000
N2   N   0.556079973090188   0.622745411060384   0.375000000000000   1.0000000
N2   N   0.387540900610732   0.108415134554755   0.375000000000000   1.0000000
N2   N   0.891584865445193   0.612459099389159   0.375000000000000   1.0000000
N2   N   0.722674563525938   0.110168577331546   0.375000000000000   1.0000000
N2   N   0.055564341065218   0.777780315432387   0.875000000000000   1.0000000
N2   N   0.388882641033749   0.777780315432387   0.875000000000000   1.0000000
N2   N   0.222231758038299   0.277782545685894   0.875000000000000   1.0000000
N2   N   0.722217454314021   0.777768241961548   0.875000000000000   1.0000000
N2   N   0.555539781001820   0.277760771036149   0.875000000000000   1.0000000
N2   N   0.888890189021057   0.277785062126859   0.875000000000000   1.0000000
N2   N   0.222222222222221   0.777777777777779   0.375000000000000   1.0000000
N2   N   0.054160680472353   0.277325436474181   0.375000000000000   1.0000000
N2   N   0.377254588939522   0.266667895362964   0.375000000000000   1.0000000
N2   N   0.555094724808687   0.782443967206868   0.375000000000000   1.0000000
N2   N   0.894015909064893   0.782443967206868   0.375000000000000   1.0000000
N2   N   0.724488176339375   0.275511823660592   0.375000000000000   1.0000000
N2   N   0.055559040893781   0.944440959106348   0.875000000000000   1.0000000
N2   N   0.388882641033749   0.944435658934653   0.875000000000000   1.0000000
N2   N   0.222223926359266   0.444453934310847   0.875000000000000   1.0000000
N2   N   0.555555555555557   0.444444444444443   0.875000000000000   1.0000000
N2   N   0.722214937873153   0.944438460227362   0.875000000000000   1.0000000
N2   N   0.888896674618110   0.444453934310847   0.875000000000000   1.0000000
N2   N   0.055821030249574   0.444975393832472   0.375000000000000   1.0000000
N2   N   0.221808611126124   0.943253716824216   0.375000000000000   1.0000000
N2   N   0.555024606167474   0.944178969750428   0.375000000000000   1.0000000
N2   N   0.377254588939522   0.443920026909791   0.375000000000000   1.0000000
N2   N   0.889831422668495   0.945839319527976   0.375000000000000   1.0000000
N2   N   0.733332104636959   0.443920026909791   0.375000000000000   1.0000000
N2   N   0.222219684567809   0.611117358966321   0.875000000000000   1.0000000
N2   N   0.055561539772548   0.111109810979004   0.875000000000000   1.0000000
N2   N   0.555539781001820   0.611112343298841   0.875000000000000   1.0000000
N2   N   0.388879042796367   0.111091418926242   0.875000000000000   1.0000000
N2   N   0.888908581073924   0.611120957203586   0.875000000000000   1.0000000
N2   N   0.056746283175636   0.611888227635179   0.375000000000000   1.0000000
N2   N   0.722214937873153   0.111109810979004   0.875000000000000   1.0000000
N2   N   0.217556032793237   0.105984090935218   0.375000000000000   1.0000000
N2   N   0.387540900610732   0.612459099389159   0.375000000000000   1.0000000
N2   N   0.733332104636959   0.622745411060384   0.375000000000000   1.0000000
N2   N   0.555094724808687   0.105984090935218   0.375000000000000   1.0000000
N2   N   0.388879042796367   0.611120957203586   0.875000000000000   1.0000000
N2   N   0.888888888888886   0.111111111111114   0.375000000000000   1.0000000
N2   N   0.222222222222221   0.777777777777779   0.875000000000000   1.0000000
N2   N   0.055561539772548   0.277785062126859   0.875000000000000   1.0000000
N2   N   0.388887656701043   0.277760771036149   0.875000000000000   1.0000000
N2   N   0.555546065689430   0.777776073640835   0.875000000000000   1.0000000
N2   N   0.888896674618110   0.777776073640835   0.875000000000000   1.0000000
N2   N   0.722217454314021   0.277782545685894   0.875000000000000   1.0000000
N2   N   0.056746283175636   0.778191388873693   0.375000000000000   1.0000000
N2   N   0.388111772364840   0.778191388873693   0.375000000000000   1.0000000
N2   N   0.217690313987544   0.275511823660593   0.375000000000000   1.0000000
N2   N   0.724488176339375   0.782309686012152   0.375000000000000   1.0000000
N2   N   0.556079973090189   0.266667895362964   0.375000000000000   1.0000000
N2   N   0.889831422668495   0.277325436474181   0.375000000000000   1.0000000
N2   N   0.055559040893781   0.444451415120914   0.875000000000000   1.0000000
N2   N   0.222219684567809   0.944435658934653   0.875000000000000   1.0000000
N2   N   0.555548584879014   0.944440959106348   0.875000000000000   1.0000000
N2   N   0.388887656701043   0.444460218998199   0.875000000000000   1.0000000
N2   N   0.888890189021057   0.944438460227362   0.875000000000000   1.0000000
N2   N   0.055821030249574   0.944178969750428   0.375000000000000   1.0000000
N2   N   0.722239228963600   0.444460218998199   0.875000000000000   1.0000000
N2   N   0.388111772364840   0.943253716824216   0.375000000000000   1.0000000
N2   N   0.217556032793237   0.444905275191337   0.375000000000000   1.0000000
N2   N   0.221808611126124   0.611888227635179   0.375000000000000   1.0000000
N2   N   0.722674563525938   0.945839319527976   0.375000000000000   1.0000000
N2   N   0.894015909064893   0.444905275191337   0.375000000000000   1.0000000
N2   N   0.055564341065218   0.611117358966321   0.875000000000000   1.0000000
N2   N   0.222223926359266   0.111103325381835   0.875000000000000   1.0000000
N2   N   0.722239228963600   0.611112343298841   0.875000000000000   1.0000000
N2   N   0.555546065689430   0.111103325381835   0.875000000000000   1.0000000
N2   N   0.888888888888886   0.111111111111114   0.875000000000000   1.0000000
B2   B   0.108664783874013   0.053583744597219   0.375000000000000   1.0000000
B2   B   0.624639984186283   0.582613301705775   0.375000000000000   1.0000000
B2   B   0.443941933569508   0.053772267047975   0.375000000000000   1.0000000
B2   B   0.946227732952186   0.556058066430621   0.375000000000000   1.0000000
B2   B   0.778318578913432   0.055825956123332   0.375000000000000   1.0000000
B2   B   0.111100589448933   0.722216961391215   0.875000000000000   1.0000000
B2   B   0.444440846978638   0.722185457667356   0.875000000000000   1.0000000
B2   B   0.277873237285805   0.222278854299802   0.875000000000000   1.0000000
B2   B   0.777721145700254   0.722126762714123   0.875000000000000   1.0000000
B2   B   0.611072283680623   0.222278854299802   0.875000000000000   1.0000000
B2   B   0.944455327781322   0.222243988896119   0.875000000000000   1.0000000
B2   B   0.277479863598298   0.722520136401511   0.375000000000000   1.0000000
B2   B   0.108483345477062   0.220908339405221   0.375000000000000   1.0000000
B2   B   0.443192614065177   0.219718561463678   0.375000000000000   1.0000000
B2   B   0.612260865792597   0.730335022821732   0.375000000000000   1.0000000
B2   B   0.946227732952186   0.723502999854745   0.375000000000000   1.0000000
B2   B   0.779091660594675   0.220908339405221   0.375000000000000   1.0000000
B2   B   0.111117350853829   0.888882649146139   0.875000000000000   1.0000000
B2   B   0.444431964958958   0.888882649146139   0.875000000000000   1.0000000
B2   B   0.277873237285805   0.388927716319367   0.875000000000000   1.0000000
B2   B   0.611070946140210   0.388929053859716   0.875000000000000   1.0000000
B2   B   0.777743369240088   0.888820071813574   0.875000000000000   1.0000000
B2   B   0.944431429742991   0.388918122331282   0.875000000000000   1.0000000
B2   B   0.108664783874013   0.388414372610124   0.375000000000000   1.0000000
B2   B   0.277479863598298   0.888293060529925   0.375000000000000   1.0000000
B2   B   0.611585627389824   0.891335216125771   0.375000000000000   1.0000000
B2   B   0.417386698294422   0.375360015813777   0.375000000000000   1.0000000
B2   B   0.946416255402849   0.891335216125771   0.375000000000000   1.0000000
B2   B   0.784740823695956   0.387739134207515   0.375000000000000   1.0000000
B2   B   0.277814542332476   0.555559153021424   0.875000000000000   1.0000000
B2   B   0.111153359255080   0.055568570257185   0.875000000000000   1.0000000
B2   B   0.611070946140210   0.555475225613896   0.875000000000000   1.0000000
B2   B   0.444440846978638   0.055588722644590   0.875000000000000   1.0000000
B2   B   0.944411277355417   0.555559153021424   0.875000000000000   1.0000000
B2   B   0.111308207489609   0.555949748312784   0.375000000000000   1.0000000
B2   B   0.777756011104303   0.055544672218623   0.875000000000000   1.0000000
B2   B   0.276497000144993   0.053772267047975   0.375000000000000   1.0000000
B2   B   0.443192614065177   0.556807385934834   0.375000000000000   1.0000000
B2   B   0.780281438536311   0.556807385934834   0.375000000000000   1.0000000
B2   B   0.611585627389824   0.053583744597219   0.375000000000000   1.0000000
B2   B   0.444475636387612   0.555524363612462   0.875000000000000   1.0000000
B2   B   0.944174043876619   0.055825956123332   0.375000000000000   1.0000000
B2   B   0.277783038608932   0.722216961391215   0.875000000000000   1.0000000
B2   B   0.111179928186404   0.222256630759898   0.875000000000000   1.0000000
B2   B   0.444475636387612   0.222284606108213   0.875000000000000   1.0000000
B2   B   0.611072283680623   0.722126762714123   0.875000000000000   1.0000000
B2   B   0.944411277355417   0.722185457667356   0.875000000000000   1.0000000
B2   B   0.777743369240088   0.222256630759898   0.875000000000000   1.0000000
B2   B   0.111706939469882   0.722520136401511   0.375000000000000   1.0000000
B2   B   0.443941933569508   0.723502999854745   0.375000000000000   1.0000000
B2   B   0.269664977178308   0.215259176304222   0.375000000000000   1.0000000
B2   B   0.784740823695956   0.730335022821732   0.375000000000000   1.0000000
B2   B   0.612260865792597   0.215259176304222   0.375000000000000   1.0000000
B2   B   0.944174043876619   0.221681421086641   0.375000000000000   1.0000000
B2   B   0.111153359255080   0.388918122331282   0.875000000000000   1.0000000
B2   B   0.277783038608932   0.888899410551193   0.875000000000000   1.0000000
B2   B   0.611081877668795   0.888846640745049   0.875000000000000   1.0000000
B2   B   0.444524774386282   0.388929053859716   0.875000000000000   1.0000000
B2   B   0.944431429742991   0.888846640745049   0.875000000000000   1.0000000
B2   B   0.111308207489590   0.888691792510359   0.375000000000000   1.0000000
B2   B   0.777721145700254   0.388927716319367   0.875000000000000   1.0000000
B2   B   0.444050251687499   0.888691792510359   0.375000000000000   1.0000000
B2   B   0.269664977178308   0.387739134207515   0.375000000000000   1.0000000
B2   B   0.276497000144993   0.556058066430621   0.375000000000000   1.0000000
B2   B   0.624639984186283   0.375360015813777   0.375000000000000   1.0000000
B2   B   0.779091660594675   0.891516654522863   0.375000000000000   1.0000000
B2   B   0.946416255402849   0.388414372610124   0.375000000000000   1.0000000
B2   B   0.111117350853829   0.555568035041058   0.875000000000000   1.0000000
B2   B   0.277814542332476   0.055588722644590   0.875000000000000   1.0000000
B2   B   0.777715393891440   0.555524363612462   0.875000000000000   1.0000000
B2   B   0.611081877668795   0.055568570257185   0.875000000000000   1.0000000
B2   B   0.944455327781322   0.055544672218623   0.875000000000000   1.0000000
B2   B   0.055567328668182   0.111135424236494   0.124492186229425   1.0000000
B2   B   0.555669686661700   0.610957707958561   0.125133430081491   1.0000000
B2   B   0.389011296714608   0.111355926762451   0.125599445468179   1.0000000
B2   B   0.888644073237440   0.610988703285350   0.125599445468179   1.0000000
B2   B   0.722234762234932   0.111135424236494   0.124492186229425   1.0000000
B2   B   0.055465209942255   0.777745584679513   0.625002378761121   1.0000000
B2   B   0.388947041404025   0.777745584679513   0.625002378761121   1.0000000
B2   B   0.222295027818381   0.277814180575786   0.624938925073793   1.0000000
B2   B   0.722185819424331   0.777704972181764   0.624938925073793   1.0000000
B2   B   0.555669686661700   0.278045312036497   0.624866569918495   1.0000000
B2   B   0.888864575763517   0.277765237764971   0.625507813770860   1.0000000
B2   B   0.222222222222221   0.777777777777779   0.124787982282159   1.0000000
B2   B   0.055567328668182   0.277765237764971   0.124492186229425   1.0000000
B2   B   0.389042292041472   0.278045312036497   0.125133430081491   1.0000000
B2   B   0.555617274673712   0.777705390727860   0.125152464976041   1.0000000
B2   B   0.888754782720351   0.777705390727860   0.125152464976041   1.0000000
B2   B   0.722185819424331   0.277814180575786   0.125061074926121   1.0000000
B2   B   0.055533655046241   0.944466344953948   0.625250995873790   1.0000000
B2   B   0.388947041404025   0.944534790057710   0.625002378761121   1.0000000
B2   B   0.222294609272526   0.444382725326291   0.624847535023914   1.0000000
B2   B   0.555555555555557   0.444444444444443   0.623217113692990   1.0000000
B2   B   0.722234762234932   0.944432671331905   0.625507813770860   1.0000000
B2   B   0.888754782720351   0.444382725326291   0.624847535023914   1.0000000
B2   B   0.055533655046241   0.444400643425801   0.124749004126194   1.0000000
B2   B   0.222254415320435   0.944534790057710   0.124997621238884   1.0000000
B2   B   0.555599356574289   0.944466344953948   0.124749004126194   1.0000000
B2   B   0.389042292041472   0.444330313338334   0.125133430081491   1.0000000
B2   B   0.888864575763517   0.944432671331905   0.124492186229425   1.0000000
B2   B   0.721954687963763   0.444330313338334   0.125133430081491   1.0000000
B2   B   0.222254415320435   0.611052958596264   0.625002378761121   1.0000000
B2   B   0.055567328668182   0.111135424236494   0.625507813770860   1.0000000
B2   B   0.555669686661700   0.610957707958561   0.624866569918495   1.0000000
B2   B   0.389011296714608   0.111355926762451   0.624400554531691   1.0000000
B2   B   0.888644073237440   0.610988703285350   0.624400554531691   1.0000000
B2   B   0.055465209942255   0.611052958596264   0.124997621238884   1.0000000
B2   B   0.722234762234932   0.111135424236494   0.625507813770860   1.0000000
B2   B   0.222294609272526   0.111245217279548   0.125152464976041   1.0000000
B2   B   0.389011296714608   0.610988703285350   0.125599445468179   1.0000000
B2   B   0.721954687963763   0.610957707958561   0.125133430081491   1.0000000
B2   B   0.555617274673712   0.111245217279548   0.125152464976041   1.0000000
B2   B   0.389011296714608   0.610988703285350   0.624400554531691   1.0000000
B2   B   0.888888888888886   0.111111111111114   0.124170040334871   1.0000000
B2   B   0.222222222222221   0.777777777777779   0.625212017717849   1.0000000
B2   B   0.055567328668182   0.277765237764971   0.625507813770860   1.0000000
B2   B   0.389042292041472   0.278045312036497   0.624866569918495   1.0000000
B2   B   0.555617274673723   0.777705390727860   0.624847535023914   1.0000000
B2   B   0.888754782720351   0.777705390727860   0.624847535023914   1.0000000
B2   B   0.722185819424331   0.277814180575786   0.624938925073793   1.0000000
B2   B   0.055465209942255   0.777745584679513   0.124997621238884   1.0000000
B2   B   0.388947041404025   0.777745584679513   0.124997621238884   1.0000000
B2   B   0.222295027818381   0.277814180575786   0.125061074926121   1.0000000
B2   B   0.722185819424331   0.777704972181764   0.125061074926121   1.0000000
B2   B   0.555669686661700   0.278045312036497   0.125133430081491   1.0000000
B2   B   0.888864575763517   0.277765237764971   0.124492186229425   1.0000000
B2   B   0.055533655046241   0.444400643425801   0.625250995873790   1.0000000
B2   B   0.222254415320435   0.944534790057710   0.625002378761121   1.0000000
B2   B   0.555599356574289   0.944466344953948   0.625250995873790   1.0000000
B2   B   0.389042292041472   0.444330313338334   0.624866569918495   1.0000000
B2   B   0.888864575763517   0.944432671331905   0.625507813770860   1.0000000
B2   B   0.055533655046241   0.944466344953948   0.124749004126194   1.0000000
B2   B   0.721954687963763   0.444330313338334   0.624866569918495   1.0000000
B2   B   0.388947041404025   0.944534790057710   0.124997621238884   1.0000000
B2   B   0.222294609272526   0.444382725326291   0.125152464976041   1.0000000
B2   B   0.222254415320435   0.611052958596264   0.124997621238884   1.0000000
B2   B   0.555555555555557   0.444444444444443   0.126782886306943   1.0000000
B2   B   0.722234762234932   0.944432671331905   0.124492186229425   1.0000000
B2   B   0.888754782720351   0.444382725326291   0.125152464976041   1.0000000
B2   B   0.055465209942255   0.611052958596264   0.625002378761121   1.0000000
B2   B   0.222294609272526   0.111245217279548   0.624847535023914   1.0000000
B2   B   0.721954687963763   0.610957707958561   0.624866569918495   1.0000000
B2   B   0.555617274673712   0.111245217279548   0.624847535023914   1.0000000
B2   B   0.888888888888886   0.111111111111114   0.625829959665287   1.0000000


