data_1
_audit_creation_method   'vasp2cif'
_cell_length_a    17.52789999999977
_cell_length_b    17.52789999999977
_cell_length_c    15.0
_cell_angle_alpha    90.0
_cell_angle_beta    90.0
_cell_angle_gamma    119.99999999999916

_symmetry_space_group_name_H-M    'P 1'
loop_
_atom_site_label
_atom_site_type_symbol
_atom_site_fract_x
_atom_site_fract_y
_atom_site_fract_z
_atom_site_occupancy
B2   B   0.907931304692612   0.956976338534149   0.110979693804934   1.0000000
B2   B   0.906930808257479   0.098342785602537   0.110957044883948   1.0000000
B2   B   0.905816848576654   0.239681098523534   0.111001227714519   1.0000000
B2   B   0.904013634805202   0.381192479605282   0.110911760279612   1.0000000
B2   B   0.898981721775578   0.522561700774942   0.110982708575577   1.0000000
B2   B   0.900282349534771   0.665305224270303   0.110990377883372   1.0000000
B2   B   0.905816852786562   0.812501219738073   0.111047607592253   1.0000000
B2   B   0.048344190835421   0.953613825975701   0.110965540435020   1.0000000
B2   B   0.049401749534380   0.097007592547676   0.110950611014532   1.0000000
B2   B   0.049104411992123   0.239659471507468   0.111021596428723   1.0000000
B2   B   0.047529419645299   0.381809985154716   0.110966413264615   1.0000000
B2   B   0.044249106466002   0.523424982485285   0.110999425354969   1.0000000
B2   B   0.043641060290652   0.665132219791305   0.110970305504540   1.0000000
B2   B   0.044733692302133   0.808064164262719   0.110927630488610   1.0000000
B2   B   0.187864483365170   0.949797182930051   0.110980742956035   1.0000000
B2   B   0.191467464604154   0.095295588308637   0.110986696545153   1.0000000
B2   B   0.191018453123540   0.237257405841004   0.111052464647774   1.0000000
B2   B   0.190902001286863   0.381389378818616   0.111027145048173   1.0000000
B2   B   0.188261120031098   0.524025814780918   0.111030323189674   1.0000000
B2   B   0.187528754961884   0.665637685503309   0.111046189036964   1.0000000
B2   B   0.187039997428305   0.807253351705819   0.110933996284637   1.0000000
B2   B   0.330005282031996   0.948700602420578   0.110981037387619   1.0000000
B2   B   0.330127671060191   0.089930957400209   0.111016058017207   1.0000000
B2   B   0.336229715996876   0.237217724247439   0.111084185484161   1.0000000
B2   B   0.331956783241415   0.378211954206438   0.111109166620266   1.0000000
B2   B   0.331403947686943   0.524534814862918   0.111019837646173   1.0000000
B2   B   0.331656843982514   0.667050472375095   0.111075130817792   1.0000000
B2   B   0.330372968708701   0.808029329320600   0.110991299183114   1.0000000
B2   B   0.473860918315017   0.950716082986573   0.110979976401399   1.0000000
B2   B   0.473211825434182   0.088176989188090   0.110950539176697   1.0000000
B2   B   0.471828176563661   0.223798686240885   0.110860922812521   1.0000000
B2   B   0.485870787755957   0.369486612997806   0.111254731326313   1.0000000
B2   B   0.476563642647602   0.676360968151088   0.111248723255454   1.0000000
B2   B   0.474679293808322   0.813178265627023   0.111041660473307   1.0000000
B2   B   0.619033441475922   0.955270161485085   0.110969620596065   1.0000000
B2   B   0.618120229493340   0.093042147242846   0.111010647441956   1.0000000
B2   B   0.617093103878514   0.230381379914728   0.110877506402776   1.0000000
B2   B   0.614605294720076   0.364276559438371   0.110922466843777   1.0000000
B2   B   0.625125313405135   0.685826517838235   0.111271565146789   1.0000000
B2   B   0.620598939558905   0.818281107820582   0.111119766952283   1.0000000
B2   B   0.764330038748318   0.957629351498233   0.110959434567003   1.0000000
B2   B   0.762974348249068   0.097273090579571   0.110985332909945   1.0000000
B2   B   0.761952002567110   0.237478239332017   0.110968164482028   1.0000000
B2   B   0.760413445124746   0.378470925229297   0.110922049553502   1.0000000
B2   B   0.752566610287455   0.522029036360334   0.111110450730396   1.0000000
B2   B   0.763208564311392   0.672044211401475   0.111061279177755   1.0000000
B2   B   0.767154750729839   0.818765496690989   0.111104484241028   1.0000000
In2   In   0.499606846142785   0.522096888816286   0.111886316624577   1.0000000
N2   N   0.953653948841808   0.907385660811809   0.111002530913416   1.0000000
N2   N   0.954961187697325   0.051194089767265   0.110916486108655   1.0000000
N2   N   0.954133068983244   0.192983304886318   0.110985627906911   1.0000000
N2   N   0.952354143216775   0.334582133140493   0.110920215204039   1.0000000
N2   N   0.948152734014654   0.476047800607736   0.110934945252419   1.0000000
N2   N   0.947124528731281   0.617363589071054   0.110969549898908   1.0000000
N2   N   0.949154758648649   0.760701513913560   0.110966498396226   1.0000000
N2   N   0.093093742614006   0.903340885718140   0.110930845280124   1.0000000
N2   N   0.096596579353743   0.048933205358677   0.110928839492836   1.0000000
N2   N   0.096654818879344   0.191594639865443   0.110993288649271   1.0000000
N2   N   0.095923338879656   0.334548873233289   0.110987895757090   1.0000000
N2   N   0.092974580803501   0.476627293292333   0.110978701957947   1.0000000
N2   N   0.091708131578713   0.618150909618000   0.111002547659886   1.0000000
N2   N   0.091536851068940   0.759963990876918   0.110892536578820   1.0000000
N2   N   0.234985040426080   0.902090824628425   0.110939145185443   1.0000000
N2   N   0.236067985461148   0.044949617948346   0.111006420764049   1.0000000
N2   N   0.240920561771142   0.191402111347926   0.111023053617252   1.0000000
N2   N   0.237794714810050   0.331416101059067   0.111087471338502   1.0000000
N2   N   0.236336270790177   0.476710304596425   0.110992565122621   1.0000000
N2   N   0.236069381952469   0.618972609282545   0.111048505444124   1.0000000
N2   N   0.234992642640909   0.760375869627743   0.110964214944174   1.0000000
N2   N   0.378487919904550   0.902736202844739   0.110956542634038   1.0000000
N2   N   0.378245431648849   0.043305839537236   0.110974810790933   1.0000000
N2   N   0.378702071945226   0.184788811569018   0.110984067705743   1.0000000
N2   N   0.389811152693755   0.336182956859954   0.111230314849702   1.0000000
N2   N   0.370743215252414   0.469828999873698   0.110968814075040   1.0000000
N2   N   0.380880595074367   0.620825844669594   0.111089015746717   1.0000000
N2   N   0.379130196058084   0.762225748173909   0.111037361107957   1.0000000
N2   N   0.523458840201355   0.906927223965886   0.110963246239711   1.0000000
N2   N   0.522731014311875   0.044544775313799   0.110983527345003   1.0000000
N2   N   0.522203217454038   0.181663310360349   0.110824135675866   1.0000000
N2   N   0.521930596310258   0.315696898318161   0.110860075245316   1.0000000
N2   N   0.571412550822412   0.461748405324145   0.111643296794957   1.0000000
N2   N   0.534483716977697   0.643929876957989   0.111429017496056   1.0000000
N2   N   0.524712782053189   0.770228121938833   0.111122071857178   1.0000000
N2   N   0.669000626961423   0.911415425929191   0.110961453632551   1.0000000
N2   N   0.667643329603419   0.049146160155810   0.110978043450473   1.0000000
N2   N   0.666727363145910   0.187440732697075   0.110970248428967   1.0000000
N2   N   0.665966465266895   0.325529862131853   0.110811891042621   1.0000000
N2   N   0.647113821233978   0.459495877792039   0.111225527931942   1.0000000
N2   N   0.673149574059506   0.640727349048181   0.110853344464264   1.0000000
N2   N   0.673875430094093   0.777302735782732   0.111212108360094   1.0000000
N2   N   0.813796575863069   0.912019523181788   0.110969705681541   1.0000000
N2   N   0.811902249798109   0.051692191553405   0.110919828376329   1.0000000
N2   N   0.810617512216407   0.192011756213126   0.110996017588421   1.0000000
N2   N   0.808823160457926   0.333038797440161   0.110891136647891   1.0000000
N2   N   0.800861685179006   0.474195120108546   0.110986702576762   1.0000000
N2   N   0.802585662059314   0.616622986164280   0.111028840175943   1.0000000
N2   N   0.811439286513468   0.767478124586190   0.111080959721718   1.0000000


