data_1
_audit_creation_method   'vasp2cif'
_cell_length_a    17.52789999999977
_cell_length_b    17.52789999999977
_cell_length_c    15.0
_cell_angle_alpha    90.0
_cell_angle_beta    90.0
_cell_angle_gamma    119.99999999999916

_symmetry_space_group_name_H-M    'P 1'
loop_
_atom_site_label
_atom_site_type_symbol
_atom_site_fract_x
_atom_site_fract_y
_atom_site_fract_z
_atom_site_occupancy
B2   B   0.906261089628927   0.953526170363560   0.111010220387197   1.0000000
B2   B   0.904580527936826   0.095421493259162   0.111037561394684   1.0000000
B2   B   0.904005686980801   0.238021675341488   0.111052340806965   1.0000000
B2   B   0.904357046652886   0.380920601628735   0.110987256196607   1.0000000
B2   B   0.905897351844073   0.524043430717379   0.111044045404887   1.0000000
B2   B   0.907166871644070   0.667521692975561   0.111108867224386   1.0000000
B2   B   0.908045767007983   0.811555247096366   0.111051040337949   1.0000000
B2   B   0.048261269623330   0.951740751572675   0.111005938495354   1.0000000
B2   B   0.046475850832405   0.093740931567027   0.111010220387197   1.0000000
B2   B   0.045742502313153   0.236790256466808   0.110995435933749   1.0000000
B2   B   0.046154132579633   0.380236319809839   0.110999228905196   1.0000000
B2   B   0.047432312712145   0.523529075713202   0.111014347133734   1.0000000
B2   B   0.048842333124256   0.666481420145694   0.111075425247593   1.0000000
B2   B   0.049053888153956   0.809313811130985   0.111063458940644   1.0000000
B2   B   0.190688210065018   0.950948133042067   0.111063458940644   1.0000000
B2   B   0.188446774099666   0.091956254188027   0.111051040337949   1.0000000
B2   B   0.186244188940760   0.233828693022878   0.111009180844446   1.0000000
B2   B   0.186966143213042   0.378582156040365   0.111034497438342   1.0000000
B2   B   0.188653819977990   0.523035450173636   0.111060104029125   1.0000000
B2   B   0.191151992308041   0.666135608489525   0.111067177858929   1.0000000
B2   B   0.191278245740323   0.808723775455706   0.111019395613293   1.0000000
B2   B   0.333520601051296   0.951159688071738   0.111075425247593   1.0000000
B2   B   0.332480328221460   0.092835149551932   0.111108867224386   1.0000000
B2   B   0.327781500867472   0.231363287671829   0.111044194551369   1.0000000
B2   B   0.325444292371823   0.372602727593536   0.110895045069989   1.0000000
B2   B   0.328632361634472   0.522001531684489   0.110933894417897   1.0000000
B2   B   0.334019192245351   0.665982828951612   0.111123622494408   1.0000000
B2   B   0.333866412707499   0.808850028887997   0.111067177858929   1.0000000
B2   B   0.476472945483824   0.952569708483848   0.111014347133734   1.0000000
B2   B   0.475958590479630   0.094104669351907   0.111044045404887   1.0000000
B2   B   0.475143365308191   0.235094927680963   0.111067803413548   1.0000000
B2   B   0.464828158949543   0.366103298076842   0.111093911971805   1.0000000
B2   B   0.478000489512515   0.671369659562540   0.110933894417897   1.0000000
B2   B   0.476966571023365   0.811348201218018   0.111060104029125   1.0000000
B2   B   0.619765701386175   0.953847888616388   0.110999228905196   1.0000000
B2   B   0.619081419567273   0.095644974543118   0.110987256196607   1.0000000
B2   B   0.618780606436292   0.237927368777778   0.110987951900278   1.0000000
B2   B   0.618996071040373   0.381005950155607   0.111046458391426   1.0000000
B2   B   0.633898723119142   0.535173862247458   0.111093911971799   1.0000000
B2   B   0.627399293602453   0.674557728825168   0.110895045069989   1.0000000
B2   B   0.621419865155670   0.813035877982931   0.111034497438342   1.0000000
B2   B   0.763211764729211   0.954259518882822   0.110995435933749   1.0000000
B2   B   0.761980345854514   0.095996334215181   0.111052340806965   1.0000000
B2   B   0.761635659792540   0.238366361403444   0.111037978866959   1.0000000
B2   B   0.762074652418266   0.381221414759697   0.110987951900278   1.0000000
B2   B   0.764907093515098   0.524858655888775   0.111067803413548   1.0000000
B2   B   0.768638733524185   0.672220520329523   0.111044194551369   1.0000000
B2   B   0.766173328173166   0.813757832255267   0.111009180844446   1.0000000
N2   N   0.953953307177822   0.905843184014416   0.110996833102870   1.0000000
N2   N   0.952201148961341   0.047800252956662   0.111007467823183   1.0000000
N2   N   0.951207374442934   0.190152198053784   0.111015365076713   1.0000000
N2   N   0.951357432841711   0.333000223224937   0.110986022392984   1.0000000
N2   N   0.952527984640765   0.476002924312511   0.110978973662880   1.0000000
N2   N   0.953922274207532   0.619209967067498   0.111077525107781   1.0000000
N2   N   0.954407891657276   0.762622327319076   0.111071432482540   1.0000000
N2   N   0.095894587829190   0.904106814088791   0.111003402289888   1.0000000
N2   N   0.094158217903566   0.046048094740227   0.110996833102870   1.0000000
N2   N   0.092304336786800   0.188130504716012   0.110971466787662   1.0000000
N2   N   0.092606828848157   0.331762487797711   0.110991682935901   1.0000000
N2   N   0.093959043632689   0.475421966757350   0.110994744788991   1.0000000
N2   N   0.095978863456748   0.618641019236526   0.111034111382593   1.0000000
N2   N   0.096361689907661   0.761474444289321   0.111025363395839   1.0000000
N2   N   0.238526957628667   0.903639712010349   0.111025363395839   1.0000000
N2   N   0.237379074598944   0.045593510260743   0.111071432482540   1.0000000
N2   N   0.233868349126391   0.186003268997733   0.111007457586112   1.0000000
N2   N   0.231683404857366   0.328151866927172   0.111014989266323   1.0000000
N2   N   0.234090876805293   0.474195498981683   0.111026620048653   1.0000000
N2   N   0.238466584024179   0.618355463546289   0.111079104094596   1.0000000
N2   N   0.238803950419938   0.761197451498057   0.111026108099468   1.0000000
N2   N   0.381360382681447   0.904022538461259   0.111034111382593   1.0000000
N2   N   0.380791434850506   0.046079127710478   0.111077525107781   1.0000000
N2   N   0.379221863252624   0.187361795385156   0.111067892957599   1.0000000
N2   N   0.372144889534736   0.324642922571157   0.111012669854887   1.0000000
N2   N   0.363228336187594   0.464792587310466   0.110576413383607   1.0000000
N2   N   0.381844108604716   0.618157293313274   0.111051729915763   1.0000000
N2   N   0.381645938371701   0.761534817893812   0.111079104094596   1.0000000
N2   N   0.524579435159708   0.906042358285308   0.110994744788991   1.0000000
N2   N   0.523998477604468   0.047473417277224   0.110978973662880   1.0000000
N2   N   0.523565805393054   0.189016890149239   0.110993848092799   1.0000000
N2   N   0.522667570745631   0.329721705459494   0.111094647308064   1.0000000
N2   N   0.535208814606543   0.636773065730396   0.110576413383607   1.0000000
N2   N   0.525805902935334   0.765910525112715   0.111026620048653   1.0000000
N2   N   0.668238914119306   0.907394573069845   0.110991682935901   1.0000000
N2   N   0.667001178692046   0.048643969076276   0.110986022392984   1.0000000
N2   N   0.666557730157232   0.190785829597426   0.110989931231993   1.0000000
N2   N   0.666473831286546   0.333527570630472   0.110957763110283   1.0000000
N2   N   0.670279696457507   0.477333831171362   0.111094647308064   1.0000000
N2   N   0.675358479345821   0.627856512383248   0.111012669854887   1.0000000
N2   N   0.671849534989786   0.768317997060652   0.111014989266323   1.0000000
N2   N   0.811870897202015   0.907697065131185   0.110971466787662   1.0000000
N2   N   0.809849203864226   0.048794027475079   0.111015365076713   1.0000000
N2   N   0.809128519575636   0.190872882342410   0.111063136841490   1.0000000
N2   N   0.809215572320585   0.333443671759768   0.110989931231993   1.0000000
N2   N   0.810984511768735   0.476435596523947   0.110993848092799   1.0000000
N2   N   0.812639606532843   0.620779538665369   0.111067892957599   1.0000000
N2   N   0.813998132920264   0.766133052791612   0.111007457586112   1.0000000
O2   O   0.468397209195849   0.531604812001119   0.111151889635041   1.0000000
S2   S   0.521733634631625   0.478267767285376   0.111222501116704   1.0000000


