data_1
_audit_creation_method   'vasp2cif'
_cell_length_a    14.93631414619966
_cell_length_b    14.936314146199727
_cell_length_c    13.341276283792837
_cell_angle_alpha    90.0
_cell_angle_beta    90.0
_cell_angle_gamma    119.99999999999984

_symmetry_space_group_name_H-M    'P 1'
loop_
_atom_site_label
_atom_site_type_symbol
_atom_site_fract_x
_atom_site_fract_y
_atom_site_fract_z
_atom_site_occupancy
Sn2   Sn   0.505479339669876   0.419406336501602   0.375000000000000   1.0000000
N2   N   0.111009039333825   0.055505384478477   0.124874827894008   1.0000000
N2   N   0.611399999617927   0.556012042231784   0.123845615752577   1.0000000
N2   N   0.444491171329805   0.055573262252613   0.124811220905719   1.0000000
N2   N   0.944443176851267   0.555529394825558   0.124703065135142   1.0000000
N2   N   0.777823666337726   0.055578499835531   0.124833685503071   1.0000000
N2   N   0.111110914815280   0.722222124074306   0.625103926281796   1.0000000
N2   N   0.444491171329805   0.722251242410528   0.625188779094280   1.0000000
N2   N   0.277490105429628   0.222057049574500   0.626216343762039   1.0000000
N2   N   0.777865127689505   0.722409421670179   0.626039554926792   1.0000000
N2   N   0.611204938211902   0.222133048058665   0.626015836803326   1.0000000
N2   N   0.944407152086137   0.222179612998995   0.625063917365054   1.0000000
N2   N   0.277802589402492   0.722228390678807   0.124956185585505   1.0000000
N2   N   0.110933287209246   0.222133310271287   0.124748839610032   1.0000000
N2   N   0.444471231165915   0.222240154756329   0.124393542261670   1.0000000
N2   N   0.611204938211902   0.722405223486564   0.123984163196675   1.0000000
N2   N   0.944443176851267   0.722247115359042   0.124703065135142   1.0000000
N2   N   0.777838700932101   0.222154865663572   0.124674716444840   1.0000000
N2   N   0.111103299541661   0.888901535622463   0.625090587537529   1.0000000
N2   N   0.444494233006808   0.888913783170067   0.625082941733509   1.0000000
N2   N   0.277490105429628   0.388766389188456   0.626216343762039   1.0000000
N2   N   0.611399999617927   0.388721290719475   0.626154384247422   1.0000000
N2   N   0.777838700932101   0.889017168601860   0.625325283555160   1.0000000
N2   N   0.944444895525638   0.388841142638415   0.625129414908996   1.0000000
N2   N   0.111009039333825   0.388836988188677   0.124874827894008   1.0000000
N2   N   0.277802589402492   0.888907532057014   0.124956185585505   1.0000000
N2   N   0.611175251228878   0.888963458548824   0.124776056143224   1.0000000
N2   N   0.443733718984493   0.388533526158911   0.123718852526828   1.0000000
N2   N   0.944444895525638   0.888937086220552   0.124870585091004   1.0000000
N2   N   0.777865127689505   0.388789039352654   0.123960445073210   1.0000000
N2   N   0.277773896915851   0.555540125048195   0.625220808423359   1.0000000
N2   N   0.111009039333825   0.055505384478477   0.625125172105990   1.0000000
N2   N   0.611399999617927   0.556012042231784   0.626154384247422   1.0000000
N2   N   0.444491171329805   0.055573262252613   0.625188779094280   1.0000000
N2   N   0.944443176851267   0.555529394825558   0.625296934864856   1.0000000
N2   N   0.111103299541661   0.555535097252522   0.124909412462472   1.0000000
N2   N   0.777823666337726   0.055578499835531   0.625166314496928   1.0000000
N2   N   0.277773896915851   0.055567105200992   0.124779191576640   1.0000000
N2   N   0.444471231165915   0.555564409742920   0.124393542261670   1.0000000
N2   N   0.777822162000828   0.555577747667079   0.124305004099269   1.0000000
N2   N   0.611175251228878   0.055545126013385   0.124776056143224   1.0000000
N2   N   0.444471231165915   0.555564409742920   0.625606457738329   1.0000000
N2   N   0.944407152086137   0.055560872420477   0.124936082634947   1.0000000
N2   N   0.277802589402492   0.722228390678807   0.625043814414495   1.0000000
N2   N   0.110933287209246   0.222133310271287   0.625251160389967   1.0000000
N2   N   0.444471231165915   0.222240154756329   0.625606457738329   1.0000000
N2   N   0.611204938211902   0.722405223486564   0.626015836803326   1.0000000
N2   N   0.944443176851267   0.722247115359042   0.625296934864856   1.0000000
N2   N   0.777838700932101   0.222154865663572   0.625325283555160   1.0000000
N2   N   0.111110914815280   0.722222124074306   0.124896073718205   1.0000000
N2   N   0.444491171329805   0.722251242410528   0.124811220905719   1.0000000
N2   N   0.277490105429628   0.222057049574500   0.123783656237961   1.0000000
N2   N   0.777865127689505   0.722409421670179   0.123960445073210   1.0000000
N2   N   0.611204938211902   0.222133048058665   0.123984163196675   1.0000000
N2   N   0.944407152086137   0.222179612998995   0.124936082634947   1.0000000
N2   N   0.111009039333825   0.388836988188677   0.625125172105990   1.0000000
N2   N   0.277802589402492   0.888907532057014   0.625043814414495   1.0000000
N2   N   0.611175251228878   0.888963458548824   0.625223943856777   1.0000000
N2   N   0.443733718984493   0.388533526158911   0.626281147473172   1.0000000
N2   N   0.944444895525638   0.888937086220552   0.625129414908996   1.0000000
N2   N   0.111103299541661   0.888901535622463   0.124909412462472   1.0000000
N2   N   0.777865127689505   0.388789039352654   0.626039554926792   1.0000000
N2   N   0.444494233006808   0.888913783170067   0.124917058266491   1.0000000
N2   N   0.277490105429628   0.388766389188456   0.123783656237961   1.0000000
N2   N   0.277773896915851   0.555540125048195   0.124779191576640   1.0000000
N2   N   0.611399999617927   0.388721290719475   0.123845615752577   1.0000000
N2   N   0.777838700932101   0.889017168601860   0.124674716444840   1.0000000
N2   N   0.944444895525638   0.388841142638415   0.124870585091004   1.0000000
N2   N   0.111103299541661   0.555535097252522   0.625090587537529   1.0000000
N2   N   0.277773896915851   0.055567105200992   0.625220808423359   1.0000000
N2   N   0.777822162000828   0.555577747667079   0.625694995900731   1.0000000
N2   N   0.611175251228878   0.055545126013385   0.625223943856777   1.0000000
N2   N   0.944407152086137   0.055560872420477   0.625063917365054   1.0000000
N2   N   0.057380537515732   0.112181666778728   0.375000000000000   1.0000000
N2   N   0.554483271599709   0.625190181245482   0.375000000000000   1.0000000
N2   N   0.385724944490447   0.102074071453685   0.375000000000000   1.0000000
N2   N   0.884471232432262   0.608902282882802   0.375000000000000   1.0000000
N2   N   0.723252463151103   0.110199806891811   0.375000000000000   1.0000000
N2   N   0.055596436371800   0.777794475283041   0.875000000000000   1.0000000
N2   N   0.388886439849826   0.777790451179442   0.875000000000000   1.0000000
N2   N   0.222255528781887   0.277794431057612   0.875000000000000   1.0000000
N2   N   0.722225884900450   0.777761436333913   0.875000000000000   1.0000000
N2   N   0.555537879644632   0.277761234397468   0.875000000000000   1.0000000
N2   N   0.888901847133125   0.277795988127125   0.875000000000000   1.0000000
N2   N   0.218490132747103   0.775911733040220   0.375000000000000   1.0000000
N2   N   0.057380537515732   0.278532204070340   0.375000000000000   1.0000000
N2   N   0.387201794547764   0.265284556703359   0.375000000000000   1.0000000
N2   N   0.554445688307054   0.783728422257904   0.375000000000000   1.0000000
N2   N   0.888237524898461   0.778567169030124   0.375000000000000   1.0000000
N2   N   0.723227742987762   0.274518707872407   0.375000000000000   1.0000000
N2   N   0.055572389773410   0.944442848157097   0.875000000000000   1.0000000
N2   N   0.388886439849826   0.944429322003719   0.875000000000000   1.0000000
N2   N   0.222234987656033   0.444468721490404   0.875000000000000   1.0000000
N2   N   0.555564193600473   0.444448763466901   0.875000000000000   1.0000000
N2   N   0.722223374724707   0.944438227068502   0.875000000000000   1.0000000
N2   N   0.888922368579884   0.444474441875222   0.875000000000000   1.0000000
N2   N   0.054518850620294   0.444336871678111   0.375000000000000   1.0000000
N2   N   0.218807415380313   0.940706110457970   0.375000000000000   1.0000000
N2   N   0.554489467602882   0.943911400468106   0.375000000000000   1.0000000
N2   N   0.387201794547764   0.455250571177741   0.375000000000000   1.0000000
N2   N   0.890274611716497   0.946263619885118   0.375000000000000   1.0000000
N2   N   0.721356148855701   0.440219717466404   0.375000000000000   1.0000000
N2   N   0.222225451217466   0.611130739769783   0.875000000000000   1.0000000
N2   N   0.055576022115749   0.111116811990213   0.875000000000000   1.0000000
N2   N   0.555537879644632   0.611109978580501   0.875000000000000   1.0000000
N2   N   0.388877995174700   0.111074028397213   0.875000000000000   1.0000000
N2   N   0.888962813611500   0.611148073472422   0.875000000000000   1.0000000
N2   N   0.052011553282997   0.609801427400558   0.375000000000000   1.0000000
N2   N   0.722223374724707   0.111118480989543   0.875000000000000   1.0000000
N2   N   0.220803327627227   0.107990415329488   0.375000000000000   1.0000000
N2   N   0.385724944490447   0.616984206370104   0.375000000000000   1.0000000
N2   N   0.721356148855702   0.614469764722633   0.375000000000000   1.0000000
N2   N   0.554445688307054   0.104050599382485   0.375000000000000   1.0000000
N2   N   0.388877995174700   0.611137300110828   0.875000000000000   1.0000000
N2   N   0.890750459815633   0.112041896574487   0.375000000000000   1.0000000
N2   N   0.222238070979235   0.777785702156287   0.875000000000000   1.0000000
N2   N   0.055576022115749   0.277792543458872   0.875000000000000   1.0000000
N2   N   0.388907410060282   0.277751206183029   0.875000000000000   1.0000000
N2   N   0.555546340500430   0.777775821883835   0.875000000000000   1.0000000
N2   N   0.888922368579884   0.777781260037997   0.875000000000000   1.0000000
N2   N   0.722225884900450   0.277797781899871   0.875000000000000   1.0000000
N2   N   0.052011553282997   0.775543459215774   0.375000000000000   1.0000000
N2   N   0.385884404984063   0.778683857150795   0.375000000000000   1.0000000
N2   N   0.225461458711553   0.279397396022445   0.375000000000000   1.0000000
N2   N   0.723227742987762   0.782042368448692   0.375000000000000   1.0000000
N2   N   0.554483271599709   0.262626423687564   0.375000000000000   1.0000000
N2   N   0.890274611716497   0.277344325164714   0.375000000000000   1.0000000
N2   N   0.055572389773410   0.444462874949641   0.875000000000000   1.0000000
N2   N   0.222225451217466   0.944428044781021   0.875000000000000   1.0000000
N2   N   0.555551568023220   0.944442450678273   0.875000000000000   1.0000000
N2   N   0.388907410060282   0.444489537210589   0.875000000000000   1.0000000
N2   N   0.888901847133125   0.944439192339336   0.875000000000000   1.0000000
N2   N   0.054518850620294   0.943515312275513   0.375000000000000   1.0000000
N2   N   0.722270583875819   0.444488993173249   0.875000000000000   1.0000000
N2   N   0.385884404984063   0.940533881166603   0.375000000000000   1.0000000
N2   N   0.220803327627227   0.446146245631076   0.375000000000000   1.0000000
N2   N   0.218807415380313   0.611434638255677   0.375000000000000   1.0000000
N2   N   0.723252463151103   0.946385989592627   0.375000000000000   1.0000000
N2   N   0.888237524898461   0.443003689201675   0.375000000000000   1.0000000
N2   N   0.055596436371800   0.611135294422093   0.875000000000000   1.0000000
N2   N   0.222234987656033   0.111099599498964   0.875000000000000   1.0000000
N2   N   0.722270583875819   0.611114924035906   0.875000000000000   1.0000000
N2   N   0.555546340500430   0.111103851949935   0.875000000000000   1.0000000
N2   N   0.888901489912858   0.111117411623101   0.875000000000000   1.0000000
B2   B   0.111228257632271   0.054801224834322   0.375000000000000   1.0000000
B2   B   0.610253841214170   0.571528224561225   0.375000000000000   1.0000000
B2   B   0.442974255109777   0.050260039232883   0.375000000000000   1.0000000
B2   B   0.940736165644943   0.553970851287280   0.375000000000000   1.0000000
B2   B   0.779668187779625   0.056500760556481   0.375000000000000   1.0000000
B2   B   0.111117137297665   0.722225235315498   0.875000000000000   1.0000000
B2   B   0.444439148419039   0.722149876075738   0.875000000000000   1.0000000
B2   B   0.277958887646144   0.222333659279623   0.875000000000000   1.0000000
B2   B   0.777693080445697   0.722060381061045   0.875000000000000   1.0000000
B2   B   0.611046804913946   0.222332975394369   0.875000000000000   1.0000000
B2   B   0.944485099396495   0.222265251164809   0.875000000000000   1.0000000
B2   B   0.274845002285382   0.721851541142308   0.375000000000000   1.0000000
B2   B   0.115139408189935   0.224236370761632   0.375000000000000   1.0000000
B2   B   0.441963855267414   0.212170434013225   0.375000000000000   1.0000000
B2   B   0.611540366624970   0.731297256783692   0.375000000000000   1.0000000
B2   B   0.940736165644943   0.720098647691000   0.375000000000000   1.0000000
B2   B   0.779263381514898   0.221105671139978   0.375000000000000   1.0000000
B2   B   0.111138970611756   0.888896977802018   0.875000000000000   1.0000000
B2   B   0.444433105093782   0.888883219213555   0.875000000000000   1.0000000
B2   B   0.277958887646144   0.388958561699851   0.875000000000000   1.0000000
B2   B   0.611033345572168   0.388974337493225   0.875000000000000   1.0000000
B2   B   0.777734038245729   0.888778363783087   0.875000000000000   1.0000000
B2   B   0.944440114714789   0.388939457796533   0.875000000000000   1.0000000
B2   B   0.111228257632271   0.389760366131279   0.375000000000000   1.0000000
B2   B   0.274845002285382   0.886326794476403   0.375000000000000   1.0000000
B2   B   0.611734679874024   0.891977003303050   0.375000000000000   1.0000000
B2   B   0.944104094061331   0.889140845001897   0.375000000000000   1.0000000
B2   B   0.777279229219297   0.386455563695548   0.375000000000000   1.0000000
B2   B   0.277852963926393   0.555558550628383   0.875000000000000   1.0000000
B2   B   0.111203992061814   0.055601248235909   0.875000000000000   1.0000000
B2   B   0.611033345572168   0.555392341412271   0.875000000000000   1.0000000
B2   B   0.444439148419040   0.055622605676640   0.875000000000000   1.0000000
B2   B   0.944416495747864   0.555577108623306   0.875000000000000   1.0000000
B2   B   0.108272207748744   0.555116955609021   0.375000000000000   1.0000000
B2   B   0.777759512976410   0.055546423154873   0.875000000000000   1.0000000
B2   B   0.275417683737530   0.051625309814338   0.375000000000000   1.0000000
B2   B   0.441963855267414   0.563126754587525   0.375000000000000   1.0000000
B2   B   0.771463570282503   0.552398451807919   0.375000000000000   1.0000000
B2   B   0.611734679874024   0.053091009904302   0.375000000000000   1.0000000
B2   B   0.444499669845253   0.555492004886003   0.875000000000000   1.0000000
B2   B   0.946750608287178   0.057144472948341   0.375000000000000   1.0000000
B2   B   0.277795968168236   0.722213022648918   0.875000000000000   1.0000000
B2   B   0.111256781161345   0.222295057247337   0.875000000000000   1.0000000
B2   B   0.444499669845253   0.222340998292584   0.875000000000000   1.0000000
B2   B   0.611046804913946   0.722047162852904   0.875000000000000   1.0000000
B2   B   0.944416495747864   0.722172720457893   0.875000000000000   1.0000000
B2   B   0.777734038245729   0.222289007795972   0.875000000000000   1.0000000
B2   B   0.107550828638362   0.720442080985844   0.375000000000000   1.0000000
B2   B   0.442974255109777   0.726047549210230   0.375000000000000   1.0000000
B2   B   0.280557455028570   0.220859955093752   0.375000000000000   1.0000000
B2   B   0.777279229219297   0.724156998857078   0.375000000000000   1.0000000
B2   B   0.611540366624970   0.213576443174605   0.375000000000000   1.0000000
B2   B   0.946750608287178   0.222939468672175   0.375000000000000   1.0000000
B2   B   0.111203992061814   0.388936077159234   0.875000000000000   1.0000000
B2   B   0.277795968168236   0.888916278852647   0.875000000000000   1.0000000
B2   B   0.611073712723318   0.888818261251342   0.875000000000000   1.0000000
B2   B   0.444599953744566   0.388966643538947   0.875000000000000   1.0000000
B2   B   0.944440114714789   0.888833990251585   0.875000000000000   1.0000000
B2   B   0.108272207748744   0.886488585473051   0.375000000000000   1.0000000
B2   B   0.777693080445697   0.388966032717981   0.875000000000000   1.0000000
B2   B   0.442973051884038   0.888153192608684   0.375000000000000   1.0000000
B2   B   0.280557455028570   0.393030833268148   0.375000000000000   1.0000000
B2   B   0.275417683737530   0.557125707256527   0.375000000000000   1.0000000
B2   B   0.610253841214170   0.372058949986276   0.375000000000000   1.0000000
B2   B   0.779263381514898   0.891491043708249   0.375000000000000   1.0000000
B2   B   0.944104094061331   0.388296582392760   0.375000000000000   1.0000000
B2   B   0.111138970611756   0.555575326143068   0.875000000000000   1.0000000
B2   B   0.277852963926393   0.055627746631347   0.875000000000000   1.0000000
B2   B   0.777693231326650   0.555513282329992   0.875000000000000   1.0000000
B2   B   0.611073712723318   0.055588784805304   0.875000000000000   1.0000000
B2   B   0.944485099396495   0.055553181565019   0.875000000000000   1.0000000
B2   B   0.055583604264518   0.111168313662853   0.125255658433373   1.0000000
B2   B   0.555766818282296   0.610846237694267   0.124952742226443   1.0000000
B2   B   0.389111947565712   0.111572913753511   0.125239822140946   1.0000000
B2   B   0.888463820902199   0.610898577117771   0.124981052110020   1.0000000
B2   B   0.722252933202377   0.111144954232851   0.125078822492817   1.0000000
B2   B   0.055422579069364   0.777747116544242   0.624870274995348   1.0000000
B2   B   0.389014569038925   0.777721292641629   0.624775448526775   1.0000000
B2   B   0.222301082088522   0.277817207710930   0.625175708927447   1.0000000
B2   B   0.722148388612109   0.777682080773321   0.625323746388407   1.0000000
B2   B   0.555766818282296   0.278253913921366   0.625047257773560   1.0000000
B2   B   0.888852318774888   0.277738522904166   0.624848376866971   1.0000000
B2   B   0.222253808756294   0.777793571044817   0.125198000281472   1.0000000
B2   B   0.055583604264518   0.277748623935001   0.125255658433373   1.0000000
B2   B   0.388934040288273   0.278118854040050   0.124958604914882   1.0000000
B2   B   0.555658892121144   0.777669254073623   0.124944765438923   1.0000000
B2   B   0.888673758209511   0.777687525596113   0.124873144616702   1.0000000
B2   B   0.722148388612109   0.277799641172124   0.124676253611595   1.0000000
B2   B   0.055532482278037   0.944509468235081   0.624751738412594   1.0000000
B2   B   0.389014569038925   0.944626609730633   0.624775448526775   1.0000000
B2   B   0.222313597893498   0.444311570755184   0.624954627017955   1.0000000
B2   B   0.555371723486297   0.444352528409813   0.616348593870974   1.0000000
B2   B   0.722252933202377   0.944441312302860   0.624921177507185   1.0000000
B2   B   0.888673758209511   0.444319565946734   0.625126855383299   1.0000000
B2   B   0.055532482278037   0.444356347376284   0.125248261587406   1.0000000
B2   B   0.222315302607959   0.944649456142567   0.125225161178065   1.0000000
B2   B   0.555646083875449   0.944489708604389   0.125160175776059   1.0000000
B2   B   0.388934040288273   0.444148519581559   0.124958604914882   1.0000000
B2   B   0.888852318774888   0.944447129204059   0.125151623133030   1.0000000
B2   B   0.721689297913857   0.444157109829854   0.124585857617248   1.0000000
B2   B   0.222315302607959   0.610999179798727   0.624774838821936   1.0000000
B2   B   0.055583604264519   0.111168313662853   0.624744341566626   1.0000000
B2   B   0.555766818282296   0.610846237694267   0.625047257773560   1.0000000
B2   B   0.389111947565712   0.111572913753511   0.624760177859054   1.0000000
B2   B   0.888463820902199   0.610898577117771   0.625018947889979   1.0000000
B2   B   0.055422579069364   0.611008795858460   0.125129725004652   1.0000000
B2   B   0.722252933202377   0.111144954232851   0.624921177507185   1.0000000
B2   B   0.222313597893498   0.111335360471650   0.125045372982045   1.0000000
B2   B   0.389111947565712   0.610872367145544   0.125239822140946   1.0000000
B2   B   0.721689297913857   0.610865521417338   0.124585857617248   1.0000000
B2   B   0.555658892121144   0.111322971380858   0.124944765438923   1.0000000
B2   B   0.389111947565712   0.610872367145544   0.624760177859054   1.0000000
B2   B   0.888901180624801   0.111117256979072   0.125204090158106   1.0000000
B2   B   0.222253808756294   0.777793571044817   0.624801999718529   1.0000000
B2   B   0.055583604264518   0.277748623935001   0.624744341566626   1.0000000
B2   B   0.388934040288273   0.278118854040050   0.625041395085118   1.0000000
B2   B   0.555658892121144   0.777669254073623   0.625055234561080   1.0000000
B2   B   0.888673758209511   0.777687525596113   0.625126855383299   1.0000000
B2   B   0.722148388612109   0.277799641172124   0.625323746388407   1.0000000
B2   B   0.055422579069364   0.777747116544242   0.125129725004652   1.0000000
B2   B   0.389014569038925   0.777721292641629   0.125224551473224   1.0000000
B2   B   0.222301082088522   0.277817207710930   0.124824291072552   1.0000000
B2   B   0.722148388612109   0.777682080773321   0.124676253611595   1.0000000
B2   B   0.555766818282296   0.278253913921366   0.124952742226443   1.0000000
B2   B   0.888852318774888   0.277738522904166   0.125151623133030   1.0000000
B2   B   0.055532482278037   0.444356347376284   0.624751738412594   1.0000000
B2   B   0.222315302607959   0.944649456142567   0.624774838821936   1.0000000
B2   B   0.555646083875449   0.944489708604389   0.624839824223942   1.0000000
B2   B   0.388934040288273   0.444148519581559   0.625041395085118   1.0000000
B2   B   0.888852318774888   0.944447129204059   0.624848376866971   1.0000000
B2   B   0.055532482278037   0.944509468235081   0.125248261587406   1.0000000
B2   B   0.721689297913857   0.444157109829854   0.625414142382752   1.0000000
B2   B   0.389014569038925   0.944626609730633   0.125224551473224   1.0000000
B2   B   0.222313597893498   0.444311570755184   0.125045372982045   1.0000000
B2   B   0.222315302607959   0.610999179798727   0.125225161178065   1.0000000
B2   B   0.555371723486297   0.444352528409813   0.133651406129028   1.0000000
B2   B   0.722252933202377   0.944441312302860   0.125078822492817   1.0000000
B2   B   0.888673758209511   0.444319565946734   0.124873144616702   1.0000000
B2   B   0.055422579069364   0.611008795858460   0.624870274995348   1.0000000
B2   B   0.222313597893498   0.111335360471650   0.624954627017955   1.0000000
B2   B   0.721689297913857   0.610865521417338   0.625414142382752   1.0000000
B2   B   0.555658892121144   0.111322971380858   0.625055234561080   1.0000000
B2   B   0.888901180624801   0.111117256979072   0.624795909841894   1.0000000


