data_1
_audit_creation_method   'vasp2cif'
_cell_length_a    17.52789999999977
_cell_length_b    17.52789999999977
_cell_length_c    15.0
_cell_angle_alpha    90.0
_cell_angle_beta    90.0
_cell_angle_gamma    119.99999999999916

_symmetry_space_group_name_H-M    'P 1'
loop_
_atom_site_label
_atom_site_type_symbol
_atom_site_fract_x
_atom_site_fract_y
_atom_site_fract_z
_atom_site_occupancy
B2   B   0.906414170552960   0.956946195161424   0.125268366380853   1.0000000
B2   B   0.905170776814228   0.099388053466447   0.122076755119142   1.0000000
B2   B   0.904776069444051   0.242187026433278   0.115735661576765   1.0000000
B2   B   0.904816840250816   0.384982844514471   0.110227857143728   1.0000000
B2   B   0.905744156088714   0.527882437624050   0.110003302757209   1.0000000
B2   B   0.907521034341347   0.671057579861709   0.116358261879774   1.0000000
B2   B   0.908107473310786   0.814769888559324   0.123706687990079   1.0000000
B2   B   0.049009480916365   0.955640651623848   0.124988827897506   1.0000000
B2   B   0.047645063336446   0.098193619012609   0.125187315005304   1.0000000
B2   B   0.047346625093903   0.241389917824173   0.120101365474635   1.0000000
B2   B   0.047832145085145   0.384356622631203   0.112798749511262   1.0000000
B2   B   0.049002984914708   0.527100771861670   0.109902747269135   1.0000000
B2   B   0.049770364138023   0.669947148835883   0.113492947550373   1.0000000
B2   B   0.049804381015192   0.812871466739730   0.120462177087013   1.0000000
B2   B   0.191707791501843   0.954784746442269   0.120227615873541   1.0000000
B2   B   0.189841381904161   0.096512818534564   0.123487976211159   1.0000000
B2   B   0.188811817936803   0.239363075354597   0.121507595035707   1.0000000
B2   B   0.190052424295771   0.383331635779079   0.112937186666037   1.0000000
B2   B   0.192488483368162   0.526271867162898   0.107316219974317   1.0000000
B2   B   0.192773322502035   0.669200297787540   0.108763167351947   1.0000000
B2   B   0.192433032406294   0.812133432067523   0.114490289586065   1.0000000
B2   B   0.334603065269355   0.954788555777503   0.113247293790767   1.0000000
B2   B   0.333509375804200   0.097045678670233   0.115972977056954   1.0000000
B2   B   0.329892321408452   0.236644453758469   0.116758905314298   1.0000000
B2   B   0.329353454858056   0.380323714199965   0.108494906244546   1.0000000
B2   B   0.336579977021993   0.524621815836162   0.099819320878858   1.0000000
B2   B   0.336208718421290   0.668291815502986   0.103020628395812   1.0000000
B2   B   0.335343463851913   0.811744854028811   0.108835002280954   1.0000000
B2   B   0.477466554916028   0.955548861534676   0.109851115897545   1.0000000
B2   B   0.476696873755646   0.098809759902796   0.109707022527959   1.0000000
B2   B   0.475192399198928   0.241514501342911   0.105900449834419   1.0000000
B2   B   0.465707144284685   0.376861571657438   0.094835867676290   1.0000000
B2   B   0.479875853813468   0.667881379818950   0.100035896946002   1.0000000
B2   B   0.478293569643498   0.812022746314584   0.107484321846551   1.0000000
B2   B   0.620217583731125   0.956722069681913   0.112903761365297   1.0000000
B2   B   0.619572837261121   0.099719616774150   0.110120859595893   1.0000000
B2   B   0.618809191109417   0.243031121267602   0.105366622202968   1.0000000
B2   B   0.617687196711506   0.386869828308162   0.097544122115143   1.0000000
B2   B   0.627830958953838   0.538974457004088   0.095009442579071   1.0000000
B2   B   0.624299184871569   0.675234857507396   0.108945981760941   1.0000000
B2   B   0.621220934671931   0.814444001769212   0.113239353897945   1.0000000
B2   B   0.763158363121849   0.957193855615140   0.120263642808975   1.0000000
B2   B   0.762350136303470   0.099770598890867   0.115774298191829   1.0000000
B2   B   0.761870891944047   0.242666475786081   0.109976771257846   1.0000000
B2   B   0.761484830271865   0.385729578621004   0.105448288163274   1.0000000
B2   B   0.763037357715313   0.529367702956628   0.106135067775830   1.0000000
B2   B   0.768021717228476   0.674744530485513   0.117099599590736   1.0000000
B2   B   0.765233750059568   0.815769378529289   0.121754682871995   1.0000000
N2   N   0.954392230746824   0.909318074124933   0.125673291742175   1.0000000
N2   N   0.952913814969801   0.051672411944670   0.125019596734173   1.0000000
N2   N   0.952254798570134   0.194409715610931   0.120028562324189   1.0000000
N2   N   0.952353776029711   0.337296735124776   0.112942495156765   1.0000000
N2   N   0.953206416606231   0.480100992665221   0.109768288478543   1.0000000
N2   N   0.954354868572121   0.622915940041968   0.113253373912716   1.0000000
N2   N   0.954803625343202   0.766024023717938   0.121276673122103   1.0000000
N2   N   0.096740676785439   0.907854265890952   0.122771884747479   1.0000000
N2   N   0.095298768739455   0.050238789175139   0.125579461882464   1.0000000
N2   N   0.094240289689835   0.192919521945330   0.123573773686508   1.0000000
N2   N   0.094841099044390   0.336369356217623   0.115811934415513   1.0000000
N2   N   0.096590684544822   0.479411771829701   0.109767693071359   1.0000000
N2   N   0.097222931772652   0.622219341288026   0.110400369802833   1.0000000
N2   N   0.097233373498147   0.765026960671148   0.116500508253273   1.0000000
N2   N   0.239531524999407   0.907335717520042   0.116294236054224   1.0000000
N2   N   0.238553943396301   0.049783109413982   0.120941953480143   1.0000000
N2   N   0.235961309251852   0.190896717945113   0.122579518689762   1.0000000
N2   N   0.235237935728511   0.333695796330601   0.116242827836850   1.0000000
N2   N   0.239870061129996   0.478263390890688   0.106761748364663   1.0000000
N2   N   0.240491299530137   0.621517941160513   0.105628844604904   1.0000000
N2   N   0.240060938675452   0.764482792875864   0.110326368136031   1.0000000
N2   N   0.382333120803099   0.907314221147624   0.110354738063679   1.0000000
N2   N   0.381650327242945   0.050204261855092   0.112855462340099   1.0000000
N2   N   0.380301920633274   0.192207279477787   0.113239641606829   1.0000000
N2   N   0.375228492203285   0.330387951007293   0.110961698351130   1.0000000
N2   N   0.378824786908344   0.472169921339040   0.097091239881369   1.0000000
N2   N   0.384052013506276   0.620460366875063   0.098204849904963   1.0000000
N2   N   0.383029841558318   0.764022771985899   0.105749735467025   1.0000000
N2   N   0.525149504168630   0.907937209457922   0.109865114249166   1.0000000
N2   N   0.524460361116212   0.051332369513035   0.109584891940972   1.0000000
N2   N   0.523592773871277   0.194677656103548   0.106691558828036   1.0000000
N2   N   0.521464837234554   0.337979742628380   0.097195278555479   1.0000000
N2   N   0.532436263220400   0.625709561033777   0.097470868122941   1.0000000
N2   N   0.526281694873423   0.764609175302466   0.107016760084521   1.0000000
N2   N   0.668177586313229   0.909679185677456   0.116014602489497   1.0000000
N2   N   0.667253089084022   0.052187012894435   0.112958228775924   1.0000000
N2   N   0.666572539459733   0.195362147459084   0.108268745678706   1.0000000
N2   N   0.665559937527006   0.338972720682069   0.102350795865773   1.0000000
N2   N   0.666605110389579   0.483117759367634   0.097316222976359   1.0000000
N2   N   0.674275016217184   0.629409678489611   0.111353080499470   1.0000000
N2   N   0.670892944488384   0.769321740412179   0.116640650893785   1.0000000
N2   N   0.811671650094673   0.910335501089813   0.123734524759983   1.0000000
N2   N   0.810137171804111   0.052293509800993   0.120104070418697   1.0000000
N2   N   0.809515944458317   0.195023820772541   0.113989327527459   1.0000000
N2   N   0.809163254842997   0.337969547563959   0.108341291160908   1.0000000
N2   N   0.809866408335485   0.480960160319026   0.106904744110482   1.0000000
N2   N   0.812373898125368   0.624264126660456   0.113598880859573   1.0000000
N2   N   0.813732539116514   0.768660685716306   0.122833630315282   1.0000000
Se2   Se   0.503110285620565   0.501796104814544   0.058414242460965   1.0000000


