data_1
_audit_creation_method   'vasp2cif'
_cell_length_a    17.52789999999977
_cell_length_b    17.52789999999977
_cell_length_c    15.0
_cell_angle_alpha    90.0
_cell_angle_beta    90.0
_cell_angle_gamma    119.99999999999916

_symmetry_space_group_name_H-M    'P 1'
loop_
_atom_site_label
_atom_site_type_symbol
_atom_site_fract_x
_atom_site_fract_y
_atom_site_fract_z
_atom_site_occupancy
B2   B   0.904644452563524   0.952349524853649   0.111015209793258   1.0000000
B2   B   0.904751018996191   0.095250749874811   0.111042930781967   1.0000000
B2   B   0.904797224156553   0.238125032958924   0.111047119249031   1.0000000
B2   B   0.904767942162074   0.380957600513416   0.111002011056787   1.0000000
B2   B   0.904887803140717   0.523797162382872   0.111003497743359   1.0000000
B2   B   0.905013168672494   0.666784494977690   0.111053037606544   1.0000000
B2   B   0.905146281894372   0.809921366713242   0.111048630001809   1.0000000
B2   B   0.047594415592660   0.952407306563340   0.111015791907223   1.0000000
B2   B   0.047652180913349   0.095357249628478   0.111015210983261   1.0000000
B2   B   0.047755519266881   0.238205614299101   0.111007338709653   1.0000000
B2   B   0.047774031546084   0.380979885304460   0.111024564404547   1.0000000
B2   B   0.047775233991416   0.523783917920447   0.111010192619863   1.0000000
B2   B   0.047683940404016   0.666670589668664   0.111018720339708   1.0000000
B2   B   0.047715236835805   0.809587295851114   0.111002443710436   1.0000000
B2   B   0.190414447168886   0.952286515203199   0.111002440174435   1.0000000
B2   B   0.190080343596760   0.094855461562627   0.111048627940809   1.0000000
B2   B   0.190801268933565   0.238463968696687   0.111013624473074   1.0000000
B2   B   0.190807588921366   0.381077067184339   0.111017359554610   1.0000000
B2   B   0.190791709009237   0.523845195939394   0.111063995175696   1.0000000
B2   B   0.190407055405943   0.666677934304332   0.111065981383382   1.0000000
B2   B   0.190477717839864   0.809523918498134   0.111003116048496   1.0000000
B2   B   0.333331077793337   0.952317700954983   0.111018717456710   1.0000000
B2   B   0.333217256869312   0.094988571076501   0.111053036602548   1.0000000
B2   B   0.332337135633890   0.236935413571142   0.111073846169796   1.0000000
B2   B   0.334476531653393   0.381228834142837   0.111037650215216   1.0000000
B2   B   0.334009661515272   0.524608805431114   0.111063019627928   1.0000000
B2   B   0.333100611321203   0.666901211290796   0.111074950178012   1.0000000
B2   B   0.333323717721662   0.809594629181055   0.111065979601384   1.0000000
B2   B   0.476217725995554   0.952226357459587   0.111010197915865   1.0000000
B2   B   0.476204558038124   0.095113866084283   0.111003511763362   1.0000000
B2   B   0.476119804834121   0.237950427811865   0.111061124957444   1.0000000
B2   B   0.474154016114224   0.379376437230857   0.110895111567261   1.0000000
B2   B   0.475392923557884   0.665992100735723   0.111063019298926   1.0000000
B2   B   0.476156591071608   0.809210120819759   0.111063995150692   1.0000000
B2   B   0.619021859585539   0.952227696177928   0.111024567137550   1.0000000
B2   B   0.619044057523584   0.095233671743927   0.111002018274786   1.0000000
B2   B   0.618991511693673   0.238246306382438   0.111020962201138   1.0000000
B2   B   0.618653748929310   0.381348050349688   0.111008691324018   1.0000000
B2   B   0.620625296834145   0.525847619596778   0.110895111393256   1.0000000
B2   B   0.618772823483164   0.665525066280602   0.111037647801218   1.0000000
B2   B   0.618924657545659   0.809194174691634   0.111017357719612   1.0000000
B2   B   0.761796108302892   0.952246228983119   0.111007341063653   1.0000000
B2   B   0.761876667944075   0.095204464851448   0.111047118753029   1.0000000
B2   B   0.761866911989812   0.238134711241188   0.111062839472141   1.0000000
B2   B   0.761755425997562   0.381010212933325   0.111020955624141   1.0000000
B2   B   0.762051441283137   0.523881967150884   0.111061117723444   1.0000000
B2   B   0.763066375506856   0.667664556923110   0.111073847728790   1.0000000
B2   B   0.761537686972309   0.809200394768435   0.111013625493080   1.0000000
C2   C   0.476224487796130   0.523777050946870   0.110954052316690   1.0000000
C2   C   0.521378301022697   0.478623452849302   0.110626698855542   1.0000000
N2   N   0.952478463874140   0.904985524009495   0.111018837552917   1.0000000
N2   N   0.952346075301134   0.047655644827865   0.111014559936892   1.0000000
N2   N   0.952482137889751   0.190543478877898   0.111027410410929   1.0000000
N2   N   0.952536718192508   0.333386296033797   0.111015455732861   1.0000000
N2   N   0.952604789328525   0.476196359168419   0.110967575951228   1.0000000
N2   N   0.952587486898603   0.619096562332268   0.111016067126475   1.0000000
N2   N   0.952574486987763   0.762090878011523   0.111031568425722   1.0000000
N2   N   0.095224492644725   0.904777272928278   0.110985457153084   1.0000000
N2   N   0.095016190909507   0.047523262618856   0.111018848059918   1.0000000
N2   N   0.095472153670166   0.190769488617817   0.110992426520018   1.0000000
N2   N   0.095584877217249   0.333517693705079   0.111004983157727   1.0000000
N2   N   0.095612139272278   0.476233445565109   0.111022367341320   1.0000000
N2   N   0.095327856957310   0.619020587132422   0.111024639976503   1.0000000
N2   N   0.095314524402482   0.761912181752788   0.110993091997220   1.0000000
N2   N   0.238089485874209   0.904687127976516   0.110993091074218   1.0000000
N2   N   0.237910865160476   0.047427290367232   0.111031558218719   1.0000000
N2   N   0.237417510777449   0.189942648109792   0.111042167735747   1.0000000
N2   N   0.238973458970630   0.334222462971977   0.111007868817063   1.0000000
N2   N   0.238917824318609   0.476388813583052   0.111042496525126   1.0000000
N2   N   0.238110733702778   0.619040700048096   0.111063622286207   1.0000000
N2   N   0.238130828491476   0.761870820951524   0.111033977340507   1.0000000
N2   N   0.380981056458576   0.904673766261689   0.111024630692502   1.0000000
N2   N   0.380905142981730   0.047414143953402   0.111016072686479   1.0000000
N2   N   0.380601902826512   0.190018676487612   0.111052384529574   1.0000000
N2   N   0.379311739879942   0.331730761369141   0.111037465928599   1.0000000
N2   N   0.383729485943946   0.478450186057139   0.111043128965770   1.0000000
N2   N   0.380745405726466   0.619256349108531   0.111047628752721   1.0000000
N2   N   0.380961098724903   0.761891125152223   0.111063629168205   1.0000000
N2   N   0.523768330751898   0.904389663790722   0.111022372609319   1.0000000
N2   N   0.523805297652580   0.047396754777474   0.110967593948224   1.0000000
N2   N   0.523726445150393   0.190216979310201   0.111026489221909   1.0000000
N2   N   0.523216380457467   0.332792147628871   0.111014881335634   1.0000000
N2   N   0.521551360716863   0.616272014019052   0.111043132498766   1.0000000
N2   N   0.523612922718952   0.761083988764393   0.111042491498128   1.0000000
N2   N   0.666484061520916   0.904416906938757   0.111004981862727   1.0000000
N2   N   0.666615416456200   0.047464956189483   0.111015458443859   1.0000000
N2   N   0.666642110568857   0.190473101459256   0.111030210816370   1.0000000
N2   N   0.666500239900797   0.333501518268202   0.111002005180436   1.0000000
N2   N   0.667209787338132   0.476785394569535   0.111014876492631   1.0000000
N2   N   0.668271033819866   0.620689908270062   0.111037467236602   1.0000000
N2   N   0.665779140407020   0.761028190891377   0.111007864032063   1.0000000
N2   N   0.809232194640182   0.904529554416832   0.110992428193019   1.0000000
N2   N   0.809458290957104   0.047519645272255   0.111027413876928   1.0000000
N2   N   0.809538854923880   0.190462802507119   0.111046132055384   1.0000000
N2   N   0.809528526864744   0.333359532692144   0.111030205300370   1.0000000
N2   N   0.809784745730801   0.476275272884608   0.111026469892908   1.0000000
N2   N   0.809983157061388   0.619399848219488   0.111052383899571   1.0000000
N2   N   0.810059079734209   0.762584182885553   0.111042172487744   1.0000000


