data_1
_audit_creation_method   'vasp2cif'
_cell_length_a    17.52789999999977
_cell_length_b    17.52789999999977
_cell_length_c    15.0
_cell_angle_alpha    90.0
_cell_angle_beta    90.0
_cell_angle_gamma    119.99999999999916

_symmetry_space_group_name_H-M    'P 1'
loop_
_atom_site_label
_atom_site_type_symbol
_atom_site_fract_x
_atom_site_fract_y
_atom_site_fract_z
_atom_site_occupancy
B2   B   0.905130797463031   0.953018687941346   0.111006653577074   1.0000000
B2   B   0.904999137693017   0.095652839241020   0.111023823551354   1.0000000
B2   B   0.904847927004213   0.238303212936489   0.111049412008321   1.0000000
B2   B   0.904295391454031   0.380843187222526   0.110981030654420   1.0000000
B2   B   0.903229605539190   0.523314190564510   0.111013338145345   1.0000000
B2   B   0.904496298718296   0.666265157495511   0.111057326642222   1.0000000
B2   B   0.905266918047869   0.810180667803008   0.110994327208283   1.0000000
B2   B   0.047931634589284   0.952825778237387   0.111011688837469   1.0000000
B2   B   0.048087724075226   0.095820839125866   0.111012223824037   1.0000000
B2   B   0.048070200296005   0.238471666636972   0.110991272276862   1.0000000
B2   B   0.047842228193990   0.380940033633119   0.110991468447432   1.0000000
B2   B   0.047152118850825   0.523450612270649   0.110970897190931   1.0000000
B2   B   0.047150731348335   0.666267395578784   0.111006126886787   1.0000000
B2   B   0.047422379070359   0.809378669915687   0.110984878384817   1.0000000
B2   B   0.190294818190514   0.952206485056361   0.110968843779501   1.0000000
B2   B   0.190859305822098   0.095626716961401   0.111091905194837   1.0000000
B2   B   0.191337188288801   0.238705561676123   0.110895214376245   1.0000000
B2   B   0.191608307174367   0.381236217439544   0.111156401087116   1.0000000
B2   B   0.190886625146733   0.523564779374761   0.111038324569071   1.0000000
B2   B   0.189975379203805   0.666310940494674   0.111068428520249   1.0000000
B2   B   0.190246061206639   0.809266159512842   0.110978544203857   1.0000000
B2   B   0.333235476407608   0.952124296022909   0.111027868057061   1.0000000
B2   B   0.333030539617262   0.094627808732346   0.111055749697361   1.0000000
B2   B   0.334033220781839   0.237825416048737   0.109337531056844   1.0000000
B2   B   0.335727833030191   0.381484039343845   0.110674495723389   1.0000000
B2   B   0.335274247888628   0.524493349402102   0.112496066885572   1.0000000
B2   B   0.332661565745548   0.666368802323164   0.111159490062401   1.0000000
B2   B   0.333272721290358   0.809313720700492   0.111034684656843   1.0000000
B2   B   0.476194907719239   0.952387386293138   0.110999781160887   1.0000000
B2   B   0.476101154804343   0.095188982263438   0.110950145501587   1.0000000
B2   B   0.475280859161767   0.237181600947841   0.111752728929284   1.0000000
B2   B   0.475224041307640   0.665869541526901   0.109996794884256   1.0000000
B2   B   0.476389605216028   0.809494132597043   0.111100043177396   1.0000000
B2   B   0.619118785602038   0.952581713767745   0.111019163239721   1.0000000
B2   B   0.619040007396008   0.095355836891855   0.110970857758231   1.0000000
B2   B   0.618767322539506   0.238057051461250   0.111033218293276   1.0000000
B2   B   0.617010506977177   0.380858097834927   0.111737656605763   1.0000000
B2   B   0.619399249673519   0.666899704737379   0.109835059894936   1.0000000
B2   B   0.618829596507768   0.809584516733233   0.110961694391119   1.0000000
B2   B   0.761989653757424   0.952760973426301   0.111001242823416   1.0000000
B2   B   0.761976566654480   0.095518310269497   0.111043042425229   1.0000000
B2   B   0.761750421285938   0.238262499244871   0.111039033541680   1.0000000
B2   B   0.760674894635272   0.380863433339944   0.110987944494693   1.0000000
B2   B   0.758132920418458   0.523654685735314   0.110846566633604   1.0000000
B2   B   0.763912633541939   0.667256217573171   0.111328975390638   1.0000000
B2   B   0.762224945198988   0.810303257320703   0.111042081699957   1.0000000
C2   C   0.477023382010188   0.378868737289190   0.110679050392681   1.0000000
C2   C   0.478999901346099   0.523251131967061   0.111686150984125   1.0000000
C2   C   0.515075824622483   0.468452006641231   0.114069948534253   1.0000000
C2   C   0.522012241179037   0.615527108913533   0.108328691386362   1.0000000
N2   N   0.953145403918110   0.905709354347442   0.110971575494492   1.0000000
N2   N   0.952991042705533   0.048437526180184   0.110983995295134   1.0000000
N2   N   0.952758385154033   0.190928890702693   0.111007590546532   1.0000000
N2   N   0.952424572861229   0.333424170642999   0.111002435124206   1.0000000
N2   N   0.951699558697464   0.475927806227054   0.110965146288484   1.0000000
N2   N   0.952173006519636   0.618652001197133   0.111006420831357   1.0000000
N2   N   0.952645108500711   0.762002424178510   0.111020467051130   1.0000000
N2   N   0.095265649496864   0.904837199396736   0.110952513844949   1.0000000
N2   N   0.095713740098430   0.048205459984537   0.111076264800019   1.0000000
N2   N   0.095906871763993   0.191078487953599   0.110987919748976   1.0000000
N2   N   0.095872599841866   0.333532693600974   0.110983747127356   1.0000000
N2   N   0.095196947627269   0.475957207119370   0.110912786041872   1.0000000
N2   N   0.094729330049140   0.618673978048464   0.110997884815035   1.0000000
N2   N   0.095057877722470   0.761696593350961   0.110960827780544   1.0000000
N2   N   0.237898535387177   0.904597251437268   0.110953561409744   1.0000000
N2   N   0.237839000510196   0.047361830234827   0.111007341993489   1.0000000
N2   N   0.238635122212593   0.190893587431705   0.110764161026917   1.0000000
N2   N   0.239751847810565   0.333772298753895   0.110946221235496   1.0000000
N2   N   0.238907207576803   0.475948222213031   0.111337723991667   1.0000000
N2   N   0.237150043970279   0.618674037589749   0.111104958106065   1.0000000
N2   N   0.237722944625944   0.761703278076873   0.111021420299011   1.0000000
N2   N   0.380804344807715   0.904737997081475   0.111001542042827   1.0000000
N2   N   0.380762582269410   0.047222940390857   0.111062422108164   1.0000000
N2   N   0.380231176169216   0.189104285433636   0.110846504164953   1.0000000
N2   N   0.382720062265599   0.332501405926015   0.106964027265821   1.0000000
N2   N   0.383016737705956   0.475977404806340   0.114067275913751   1.0000000
N2   N   0.379092031605354   0.619031390017262   0.111320692185128   1.0000000
N2   N   0.380556652611172   0.762035006459960   0.111015631205614   1.0000000
N2   N   0.523840736015217   0.905232506210378   0.111072081457284   1.0000000
N2   N   0.523762579244823   0.047732273082079   0.110896305210867   1.0000000
N2   N   0.523527919196263   0.190212630410836   0.111089244747398   1.0000000
N2   N   0.521161193715224   0.331334590197905   0.113052735829152   1.0000000
N2   N   0.523645528887577   0.762661009371573   0.110878123906551   1.0000000
N2   N   0.666976134022361   0.905637785927694   0.110998394554638   1.0000000
N2   N   0.666816284622478   0.048051004138525   0.110989685274828   1.0000000
N2   N   0.666581056717320   0.190471946142125   0.110974056080373   1.0000000
N2   N   0.665449291955531   0.332613099249574   0.111143765897918   1.0000000
N2   N   0.663987814112977   0.472836137297996   0.110097490082519   1.0000000
N2   N   0.673199992652198   0.629094796689888   0.112082907356228   1.0000000
N2   N   0.667940699914299   0.764076499485430   0.110845689793532   1.0000000
N2   N   0.810371466872640   0.906046517908541   0.111018661050873   1.0000000
N2   N   0.809892085383338   0.048302004485093   0.111009977897022   1.0000000
N2   N   0.809652681524246   0.190789077043710   0.111052309633488   1.0000000
N2   N   0.809069748460799   0.333323760152933   0.110963669130864   1.0000000
N2   N   0.807785971238976   0.475811422847059   0.111005583652773   1.0000000
N2   N   0.810168824902849   0.618864786916296   0.111061066601792   1.0000000
N2   N   0.811178143492747   0.763751154316128   0.110976506228402   1.0000000


