data_1
_audit_creation_method   'vasp2cif'
_cell_length_a    14.93631414619966
_cell_length_b    14.936314146199727
_cell_length_c    13.341276283792837
_cell_angle_alpha    90.0
_cell_angle_beta    90.0
_cell_angle_gamma    119.99999999999984

_symmetry_space_group_name_H-M    'P 1'
loop_
_atom_site_label
_atom_site_type_symbol
_atom_site_fract_x
_atom_site_fract_y
_atom_site_fract_z
_atom_site_occupancy
Ga2   Ga   0.479530555448849   0.406431944391089   0.375000000000000   1.0000000
N2   N   0.111122019555024   0.055556289708516   0.124944586417779   1.0000000
N2   N   0.611177124521136   0.555645479105099   0.123899457796357   1.0000000
N2   N   0.444471129178868   0.055556690152067   0.124960798704542   1.0000000
N2   N   0.944460484826301   0.555560940549357   0.125033588358157   1.0000000
N2   N   0.777800118056885   0.055566725695114   0.124999246597311   1.0000000
N2   N   0.111127556112192   0.722230444722760   0.624988365369964   1.0000000
N2   N   0.444471129178868   0.722247772360137   0.625039201295457   1.0000000
N2   N   0.277782207139391   0.222217121671700   0.625224247170860   1.0000000
N2   N   0.777800267227359   0.722246325898978   0.625118468621010   1.0000000
N2   N   0.611141323223311   0.222213770446420   0.625191260858917   1.0000000
N2   N   0.944461285274244   0.222229953616893   0.625009615713392   1.0000000
N2   N   0.277798482374942   0.722235163776398   0.124995787393641   1.0000000
N2   N   0.111123712895136   0.222228523114236   0.124933777957533   1.0000000
N2   N   0.444485666521913   0.222226830246040   0.124722343459392   1.0000000
N2   N   0.611141323223311   0.722260886110212   0.124808739141083   1.0000000
N2   N   0.944460484826301   0.722232877610279   0.125033588358157   1.0000000
N2   N   0.777800501048163   0.222223791009867   0.125029232511388   1.0000000
N2   N   0.111126829546621   0.888896347351931   0.625006990441053   1.0000000
N2   N   0.444467557109940   0.888900445221634   0.625017472590586   1.0000000
N2   N   0.277782207139391   0.388898418801019   0.625224247170860   1.0000000
N2   N   0.611177124521136   0.388864978749365   0.626100542203636   1.0000000
N2   N   0.777800501048163   0.888910043371624   0.624970767488612   1.0000000
N2   N   0.944462949944485   0.388894901444555   0.624959793861227   1.0000000
N2   N   0.111122019555024   0.388899063179836   0.124944586417779   1.0000000
N2   N   0.277798482374942   0.888896651931872   0.124995787393641   1.0000000
N2   N   0.611133189032261   0.888909674536815   0.125011700425415   1.0000000
N2   N   0.444450228606539   0.388891780969937   0.125405915771612   1.0000000
N2   N   0.944462949944485   0.888901381833259   0.125040206138773   1.0000000
N2   N   0.777800267227359   0.388887274661710   0.124881531378990   1.0000000
N2   N   0.277801002811860   0.555574075433397   0.625041149899722   1.0000000
N2   N   0.111122019555024   0.055556289708516   0.625055413582221   1.0000000
N2   N   0.611177124521136   0.555645479105099   0.626100542203636   1.0000000
N2   N   0.444471129178868   0.055556690152067   0.625039201295457   1.0000000
N2   N   0.944460484826301   0.555560940549357   0.624966411641843   1.0000000
N2   N   0.111126829546621   0.555563815528026   0.124993009558947   1.0000000
N2   N   0.777800118056885   0.055566725695114   0.625000753402689   1.0000000
N2   N   0.277801002811860   0.055560260711791   0.124958850100278   1.0000000
N2   N   0.444485666521913   0.555592169609202   0.124722343459392   1.0000000
N2   N   0.777794618317673   0.555563975825504   0.124703171627139   1.0000000
N2   N   0.611133189032261   0.055556847828767   0.125011700425415   1.0000000
N2   N   0.444485666521913   0.555592169609202   0.625277656540608   1.0000000
N2   N   0.944461285274244   0.055564664990686   0.124990384286608   1.0000000
N2   N   0.277798482374942   0.722235163776398   0.625004212606359   1.0000000
N2   N   0.111123712895136   0.222228523114236   0.625066222042467   1.0000000
N2   N   0.444485666521913   0.222226830246040   0.625277656540608   1.0000000
N2   N   0.611141323223311   0.722260886110212   0.625191260858917   1.0000000
N2   N   0.944460484826301   0.722232877610279   0.624966411641843   1.0000000
N2   N   0.777800501048163   0.222223791009867   0.624970767488612   1.0000000
N2   N   0.111127556112192   0.722230444722760   0.125011634630036   1.0000000
N2   N   0.444471129178868   0.722247772360137   0.124960798704542   1.0000000
N2   N   0.277782207139391   0.222217121671700   0.124775752829139   1.0000000
N2   N   0.777800267227359   0.722246325898978   0.124881531378990   1.0000000
N2   N   0.611141323223311   0.222213770446420   0.124808739141083   1.0000000
N2   N   0.944461285274244   0.222229953616893   0.124990384286608   1.0000000
N2   N   0.111122019555024   0.388899063179836   0.625055413582221   1.0000000
N2   N   0.277798482374942   0.888896651931872   0.625004212606359   1.0000000
N2   N   0.611133189032261   0.888909674536815   0.624988299574593   1.0000000
N2   N   0.444450228606539   0.388891780969937   0.624594084228388   1.0000000
N2   N   0.944462949944485   0.888901381833259   0.624959793861227   1.0000000
N2   N   0.111126829546621   0.888896347351931   0.124993009558947   1.0000000
N2   N   0.777800267227359   0.388887274661710   0.625118468621010   1.0000000
N2   N   0.444467557109940   0.888900445221634   0.124982527409414   1.0000000
N2   N   0.277782207139391   0.388898418801019   0.124775752829139   1.0000000
N2   N   0.277801002811860   0.555574075433397   0.124958850100278   1.0000000
N2   N   0.611177124521136   0.388864978749365   0.123899457796357   1.0000000
N2   N   0.777800501048163   0.888910043371624   0.125029232511388   1.0000000
N2   N   0.944462949944485   0.388894901444555   0.125040206138773   1.0000000
N2   N   0.111126829546621   0.555563815528026   0.625006990441053   1.0000000
N2   N   0.277801002811860   0.055560260711791   0.625041149899722   1.0000000
N2   N   0.777794618317673   0.555563975825504   0.625296828372861   1.0000000
N2   N   0.611133189032261   0.055556847828767   0.624988299574593   1.0000000
N2   N   0.944461285274244   0.055564664990686   0.625009615713392   1.0000000
N2   N   0.055692991291312   0.111182393187763   0.375000000000000   1.0000000
N2   N   0.554440900362547   0.611525110503996   0.375000000000000   1.0000000
N2   N   0.387456747876698   0.106104670914467   0.375000000000000   1.0000000
N2   N   0.888434071313486   0.610883702323418   0.375000000000000   1.0000000
N2   N   0.722290914436102   0.111074181984678   0.375000000000000   1.0000000
N2   N   0.055562715625979   0.777782756071101   0.875000000000000   1.0000000
N2   N   0.388896506244571   0.777783363876498   0.875000000000000   1.0000000
N2   N   0.222227201907449   0.277780267620396   0.875000000000000   1.0000000
N2   N   0.722232996366706   0.777783430600776   0.875000000000000   1.0000000
N2   N   0.555559367487086   0.277776021449974   0.875000000000000   1.0000000
N2   N   0.888900080288371   0.277783959094659   0.875000000000000   1.0000000
N2   N   0.221019671083449   0.777176502208392   0.375000000000000   1.0000000
N2   N   0.055692991291312   0.277843931436885   0.375000000000000   1.0000000
N2   N   0.386991429773676   0.268167852948254   0.375000000000000   1.0000000
N2   N   0.555304027606509   0.778349401577799   0.375000000000000   1.0000000
N2   N   0.887934770434034   0.777044938920847   0.375000000000000   1.0000000
N2   N   0.721974704560412   0.277639735019001   0.375000000000000   1.0000000
N2   N   0.055560673080649   0.944447492471838   0.875000000000000   1.0000000
N2   N   0.388896506244571   0.944446475701409   0.875000000000000   1.0000000
N2   N   0.222225561257434   0.444447078116749   0.875000000000000   1.0000000
N2   N   0.555559221226733   0.444446277280034   0.875000000000000   1.0000000
N2   N   0.722231404517425   0.944448991769097   0.875000000000000   1.0000000
N2   N   0.888902326556554   0.444450274967681   0.875000000000000   1.0000000
N2   N   0.054512523786190   0.444356913912898   0.375000000000000   1.0000000
N2   N   0.220780429438639   0.942724468305677   0.375000000000000   1.0000000
N2   N   0.555426876072949   0.944380104703142   0.375000000000000   1.0000000
N2   N   0.386991429773676   0.452156910158757   0.375000000000000   1.0000000
N2   N   0.888701787168559   0.944375295797642   0.375000000000000   1.0000000
N2   N   0.721528718478606   0.445076520983638   0.375000000000000   1.0000000
N2   N   0.222225542541877   0.611112885389392   0.875000000000000   1.0000000
N2   N   0.055561047090155   0.111113130048511   0.875000000000000   1.0000000
N2   N   0.555559367487086   0.611116679370449   0.875000000000000   1.0000000
N2   N   0.388893913717092   0.111110068307057   0.875000000000000   1.0000000
N2   N   0.888905224341975   0.611119278837659   0.875000000000000   1.0000000
N2   N   0.054470583101499   0.610760267371226   0.375000000000000   1.0000000
N2   N   0.722231404517425   0.111115746081664   0.875000000000000   1.0000000
N2   N   0.220962045794157   0.109153919294448   0.375000000000000   1.0000000
N2   N   0.387456747876698   0.614685410295574   0.375000000000000   1.0000000
N2   N   0.721528718478606   0.609785530828304   0.375000000000000   1.0000000
N2   N   0.555304027606509   0.110287959362046   0.375000000000000   1.0000000
N2   N   0.388893913717092   0.611117178743378   0.875000000000000   1.0000000
N2   N   0.888992729242685   0.111163031288014   0.375000000000000   1.0000000
N2   N   0.222227636212342   0.777780484772839   0.875000000000000   1.0000000
N2   N   0.055561047090155   0.277781250374981   0.875000000000000   1.0000000
N2   N   0.388897411314718   0.277780860217841   0.875000000000000   1.0000000
N2   N   0.555562350080562   0.777783849176372   0.875000000000000   1.0000000
N2   N   0.888902326556554   0.777785384922201   0.875000000000000   1.0000000
N2   N   0.722232996366706   0.277782899099265   0.875000000000000   1.0000000
N2   N   0.054470583101499   0.777043649063609   0.375000000000000   1.0000000
N2   N   0.388037030306713   0.778541325448617   0.375000000000000   1.0000000
N2   N   0.223407768406273   0.278370550869804   0.375000000000000   1.0000000
N2   N   0.721974704560412   0.777668302874747   0.375000000000000   1.0000000
N2   N   0.554440900362547   0.276249123191886   0.375000000000000   1.0000000
N2   N   0.888701787168559   0.277659824704252   0.375000000000000   1.0000000
N2   N   0.055560673080649   0.444446513942139   0.875000000000000   1.0000000
N2   N   0.222225542541877   0.944445990485821   0.875000000000000   1.0000000
N2   N   0.555563107523996   0.944448220428663   0.875000000000000   1.0000000
N2   N   0.388897411314718   0.444449884430213   0.875000000000000   1.0000000
N2   N   0.888900080288371   0.944449454527048   0.875000000000000   1.0000000
N2   N   0.054512523786190   0.943488943206621   0.375000000000000   1.0000000
N2   N   0.722237882133224   0.444453179591605   0.875000000000000   1.0000000
N2   N   0.388037030306713   0.942829038191432   0.375000000000000   1.0000000
N2   N   0.220962045794157   0.445141459833037   0.375000000000000   1.0000000
N2   N   0.220780429438639   0.611389294466297   0.375000000000000   1.0000000
N2   N   0.722290914436102   0.944550065784760   0.375000000000000   1.0000000
N2   N   0.887934770434034   0.444223164846515   0.375000000000000   1.0000000
N2   N   0.055562715625979   0.611113292888214   0.875000000000000   1.0000000
N2   N   0.222225561257434   0.111111816474020   0.875000000000000   1.0000000
N2   N   0.722237882133224   0.611118035874955   0.875000000000000   1.0000000
N2   N   0.555562350080562   0.111111834237526   0.875000000000000   1.0000000
N2   N   0.888899326974344   0.111116330153843   0.875000000000000   1.0000000
B2   B   0.110419360045593   0.054716431370803   0.375000000000000   1.0000000
B2   B   0.612273433840878   0.557923124485091   0.375000000000000   1.0000000
B2   B   0.443994353695502   0.052980034499778   0.375000000000000   1.0000000
B2   B   0.943806648917050   0.555253076383859   0.375000000000000   1.0000000
B2   B   0.777976153414610   0.055654743373973   0.375000000000000   1.0000000
B2   B   0.111125611247030   0.722229472290176   0.875000000000000   1.0000000
B2   B   0.444445343478049   0.722222771875316   0.875000000000000   1.0000000
B2   B   0.277776472401599   0.222223366638866   0.875000000000000   1.0000000
B2   B   0.777787807793104   0.722233034269181   0.875000000000000   1.0000000
B2   B   0.611111142226267   0.222217283542426   0.875000000000000   1.0000000
B2   B   0.944460498298792   0.222226788159377   0.875000000000000   1.0000000
B2   B   0.276831432758163   0.722245157571847   0.375000000000000   1.0000000
B2   B   0.112221540696524   0.222777437014926   0.375000000000000   1.0000000
B2   B   0.442219109124978   0.215675422138024   0.375000000000000   1.0000000
B2   B   0.610965498164813   0.722912764967653   0.375000000000000   1.0000000
B2   B   0.943806648917050   0.721886905866528   0.375000000000000   1.0000000
B2   B   0.777749908333479   0.222089911523598   0.375000000000000   1.0000000
B2   B   0.111124700031011   0.888902540332305   0.875000000000000   1.0000000
B2   B   0.444449439747334   0.888891386540332   0.875000000000000   1.0000000
B2   B   0.277776472401599   0.388886439096061   0.875000000000000   1.0000000
B2   B   0.611107630464269   0.388884717685435   0.875000000000000   1.0000000
B2   B   0.777788331589318   0.888899445716000   0.875000000000000   1.0000000
B2   B   0.944460386529958   0.388889157665311   0.875000000000000   1.0000000
B2   B   0.110419360045593   0.389036262008118   0.375000000000000   1.0000000
B2   B   0.276831432758163   0.887919608519643   0.375000000000000   1.0000000
B2   B   0.611204813838430   0.889217011830904   0.375000000000000   1.0000000
B2   B   0.943728737796617   0.888413226185033   0.375000000000000   1.0000000
B2   B   0.777166672644941   0.388548281064733   0.375000000000000   1.0000000
B2   B   0.277782341683822   0.555553220223733   0.875000000000000   1.0000000
B2   B   0.111123907087644   0.055567803701160   0.875000000000000   1.0000000
B2   B   0.611107630464269   0.555556246112170   0.875000000000000   1.0000000
B2   B   0.444445343478049   0.055555904936068   0.875000000000000   1.0000000
B2   B   0.944461630852162   0.555560213257126   0.875000000000000   1.0000000
B2   B   0.110003875490164   0.555375728931590   0.375000000000000   1.0000000
B2   B   0.777788901600871   0.055561117467107   0.875000000000000   1.0000000
B2   B   0.276406459956938   0.053457015671923   0.375000000000000   1.0000000
B2   B   0.442219109124978   0.559877020320290   0.375000000000000   1.0000000
B2   B   0.778199861717582   0.555766597525459   0.375000000000000   1.0000000
B2   B   0.611204813838430   0.055321135340856   0.375000000000000   1.0000000
B2   B   0.444439915637349   0.555556734416984   0.875000000000000   1.0000000
B2   B   0.944708231533647   0.055754191644332   0.375000000000000   1.0000000
B2   B   0.277786719904192   0.722223926106982   0.875000000000000   1.0000000
B2   B   0.111123693732925   0.222228513533131   0.875000000000000   1.0000000
B2   B   0.444439915637349   0.222216514553701   0.875000000000000   1.0000000
B2   B   0.611111142226267   0.722227192017163   0.875000000000000   1.0000000
B2   B   0.944461630852162   0.722234750928371   0.875000000000000   1.0000000
B2   B   0.777788331589318   0.222222219206654   0.875000000000000   1.0000000
B2   B   0.110108358695688   0.721720846014508   0.375000000000000   1.0000000
B2   B   0.443994353695502   0.724347652529060   0.375000000000000   1.0000000
B2   B   0.278037505666321   0.220904670402440   0.375000000000000   1.0000000
B2   B   0.777166672644941   0.721951724913536   0.375000000000000   1.0000000
B2   B   0.610965498164813   0.221386066530488   0.375000000000000   1.0000000
B2   B   0.944708231533647   0.222287373222650   0.375000000000000   1.0000000
B2   B   0.111123907087644   0.388889436719813   0.875000000000000   1.0000000
B2   B   0.277786719904192   0.888896127130545   0.875000000000000   1.0000000
B2   B   0.611116088601032   0.888893442482469   0.875000000000000   1.0000000
B2   B   0.444439784932070   0.388886559132696   0.875000000000000   1.0000000
B2   B   0.944460386529958   0.888904562197976   0.875000000000000   1.0000000
B2   B   0.110003875490164   0.887961479891903   0.375000000000000   1.0000000
B2   B   0.777787807793104   0.388888106857251   0.875000000000000   1.0000000
B2   B   0.444183264260100   0.888758298796711   0.375000000000000   1.0000000
B2   B   0.278037505666321   0.390466168597202   0.375000000000000   1.0000000
B2   B   0.276406459956938   0.556282777618344   0.375000000000000   1.0000000
B2   B   0.612273433840878   0.387683642689116   0.375000000000000   1.0000000
B2   B   0.777749908333479   0.888993330143202   0.375000000000000   1.0000000
B2   B   0.943728737796617   0.388648844944913   0.375000000000000   1.0000000
B2   B   0.111124700031011   0.555555493032035   0.875000000000000   1.0000000
B2   B   0.277782341683822   0.055562454793424   0.875000000000000   1.0000000
B2   B   0.777788864989030   0.555561099161182   0.875000000000000   1.0000000
B2   B   0.611116088601032   0.055555979451884   0.875000000000000   1.0000000
B2   B   0.944460498298792   0.055567043472751   0.875000000000000   1.0000000
B2   B   0.055598519152289   0.111141260647537   0.125004579846523   1.0000000
B2   B   0.555552566949858   0.611155869009772   0.124465862821068   1.0000000
B2   B   0.388892251070607   0.111099442518069   0.124965069345985   1.0000000
B2   B   0.888934827292677   0.611134080313007   0.124887844153639   1.0000000
B2   B   0.722234790268041   0.111100814104960   0.125005246967614   1.0000000
B2   B   0.055607554892327   0.777813996302407   0.624998282191928   1.0000000
B2   B   0.388908159914286   0.777791054145470   0.625002041186894   1.0000000
B2   B   0.222245206283266   0.277789269808304   0.625000428321598   1.0000000
B2   B   0.722233418472580   0.777825993902470   0.625134366461261   1.0000000
B2   B   0.555552566949858   0.277730031273415   0.625534137178932   1.0000000
B2   B   0.888923999491991   0.277772926179947   0.624987028050610   1.0000000
B2   B   0.222260930172517   0.777797131752923   0.124998832610668   1.0000000
B2   B   0.055598519152289   0.277790591838095   0.125004579846523   1.0000000
B2   B   0.388800457982335   0.277646491320065   0.125154578087861   1.0000000
B2   B   0.555557798915857   0.777808314154509   0.124961903446694   1.0000000
B2   B   0.888936555550905   0.777828788987143   0.124963360990925   1.0000000
B2   B   0.722233418472580   0.277740757903446   0.124865633538739   1.0000000
B2   B   0.055601272399384   0.944487296844226   0.624989656700860   1.0000000
B2   B   0.388908159914286   0.944450439102152   0.625002041186894   1.0000000
B2   B   0.222245778503680   0.444450587079683   0.625002038489648   1.0000000
B2   B   0.555672073271500   0.444502703302411   0.624984472763221   1.0000000
B2   B   0.722234790268041   0.944467309496418   0.624994753032386   1.0000000
B2   B   0.888936555550905   0.444441099897105   0.625036639009076   1.0000000
B2   B   0.055601272399384   0.444447308888486   0.125010343299140   1.0000000
B2   B   0.222258900247867   0.944474547898320   0.125007550951016   1.0000000
B2   B   0.555564089842881   0.944448711588101   0.125005358374536   1.0000000
B2   B   0.388800457982335   0.444487299995606   0.125154578087861   1.0000000
B2   B   0.888923999491991   0.944484406645380   0.125012971949383   1.0000000
B2   B   0.722244902474389   0.444424341413371   0.124350794266562   1.0000000
B2   B   0.222258900247867   0.611117685682882   0.624992449048984   1.0000000
B2   B   0.055598519152289   0.111141260647537   0.624995420153478   1.0000000
B2   B   0.555552566949858   0.611155869009772   0.625534137178932   1.0000000
B2   B   0.388892251070607   0.111099442518069   0.625034930654015   1.0000000
B2   B   0.888934827292677   0.611134080313007   0.625112155846368   1.0000000
B2   B   0.055607554892327   0.611126891923256   0.125001717808072   1.0000000
B2   B   0.722234790268041   0.111100814104960   0.624994753032386   1.0000000
B2   B   0.222245778503680   0.111128524757333   0.124997961510352   1.0000000
B2   B   0.388892251070607   0.611126141885881   0.124965069345985   1.0000000
B2   B   0.722244902474389   0.611153894394353   0.124350794266562   1.0000000
B2   B   0.555557798915857   0.111082818094684   0.124961903446694   1.0000000
B2   B   0.388892251070607   0.611126141885881   0.625034930654015   1.0000000
B2   B   0.888920753738176   0.111127043535760   0.125000328782452   1.0000000
B2   B   0.222260930172517   0.777797131752923   0.625001167389332   1.0000000
B2   B   0.055598519152289   0.277790591838095   0.624995420153478   1.0000000
B2   B   0.388800457982335   0.277646491320065   0.624845421912139   1.0000000
B2   B   0.555557798915857   0.777808314154509   0.625038096553306   1.0000000
B2   B   0.888936555550905   0.777828788987143   0.625036639009076   1.0000000
B2   B   0.722233418472580   0.277740757903446   0.625134366461261   1.0000000
B2   B   0.055607554892327   0.777813996302407   0.125001717808072   1.0000000
B2   B   0.388908159914286   0.777791054145470   0.124997958813106   1.0000000
B2   B   0.222245206283266   0.277789269808304   0.124999571678402   1.0000000
B2   B   0.722233418472580   0.777825993902470   0.124865633538739   1.0000000
B2   B   0.555552566949858   0.277730031273415   0.124465862821068   1.0000000
B2   B   0.888923999491991   0.277772926179947   0.125012971949383   1.0000000
B2   B   0.055601272399384   0.444447308888486   0.624989656700860   1.0000000
B2   B   0.222258900247867   0.944474547898320   0.624992449048984   1.0000000
B2   B   0.555564089842881   0.944448711588101   0.624994641625464   1.0000000
B2   B   0.388800457982335   0.444487299995606   0.624845421912139   1.0000000
B2   B   0.888923999491991   0.944484406645380   0.624987028050610   1.0000000
B2   B   0.055601272399384   0.944487296844226   0.125010343299140   1.0000000
B2   B   0.722244902474389   0.444424341413371   0.625649205733445   1.0000000
B2   B   0.388908159914286   0.944450439102152   0.124997958813106   1.0000000
B2   B   0.222245778503680   0.444450587079683   0.124997961510352   1.0000000
B2   B   0.222258900247867   0.611117685682882   0.125007550951016   1.0000000
B2   B   0.555672073271500   0.444502703302411   0.125015527236779   1.0000000
B2   B   0.722234790268041   0.944467309496418   0.125005246967614   1.0000000
B2   B   0.888936555550905   0.444441099897105   0.124963360990925   1.0000000
B2   B   0.055607554892327   0.611126891923256   0.624998282191928   1.0000000
B2   B   0.222245778503680   0.111128524757333   0.625002038489648   1.0000000
B2   B   0.722244902474389   0.611153894394353   0.625649205733445   1.0000000
B2   B   0.555557798915857   0.111082818094684   0.625038096553306   1.0000000
B2   B   0.888920753738176   0.111127043535760   0.624999671217548   1.0000000


