data_1
_audit_creation_method   'vasp2cif'
_cell_length_a    14.93631414619966
_cell_length_b    14.936314146199727
_cell_length_c    13.341276283792837
_cell_angle_alpha    90.0
_cell_angle_beta    90.0
_cell_angle_gamma    119.99999999999984

_symmetry_space_group_name_H-M    'P 1'
loop_
_atom_site_label
_atom_site_type_symbol
_atom_site_fract_x
_atom_site_fract_y
_atom_site_fract_z
_atom_site_occupancy
Pb2   Pb   0.513701293674312   0.423517313503820   0.375000000000000   1.0000000
N2   N   0.110798386913817   0.055414971513048   0.124862722965579   1.0000000
N2   N   0.611217723617225   0.555943007338091   0.122444702614472   1.0000000
N2   N   0.444261897913373   0.055465360363289   0.124919044318051   1.0000000
N2   N   0.944224975319759   0.555420463653104   0.124908623849308   1.0000000
N2   N   0.777572285925281   0.055452809629311   0.124777515246670   1.0000000
N2   N   0.110887384291928   0.722110358812630   0.625136433372565   1.0000000
N2   N   0.444261897913373   0.722129870883422   0.625080955681955   1.0000000
N2   N   0.277307316090800   0.221974812202728   0.626185168218441   1.0000000
N2   N   0.777661611298502   0.722315758490434   0.625887656598148   1.0000000
N2   N   0.610991038103310   0.222016173107054   0.625925545190358   1.0000000
N2   N   0.944174289996600   0.222057645899311   0.625175517519480   1.0000000
N2   N   0.277569707636768   0.722103124808584   0.124894348780028   1.0000000
N2   N   0.110725929067349   0.222029631200340   0.124789468788613   1.0000000
N2   N   0.444282036995064   0.222149231106700   0.124071969713945   1.0000000
N2   N   0.610991038103310   0.722308198329573   0.124074454809646   1.0000000
N2   N   0.944224975319759   0.722137844999996   0.124908623849308   1.0000000
N2   N   0.777602325294294   0.222028385413913   0.124827088472481   1.0000000
N2   N   0.110882968437245   0.888802400948523   0.625158100226414   1.0000000
N2   N   0.444244312618088   0.888788822975704   0.625129775520786   1.0000000
N2   N   0.277307316090801   0.388665837221403   0.626185168218441   1.0000000
N2   N   0.611217723617227   0.388608049612476   0.627555297385527   1.0000000
N2   N   0.777602325294294   0.888907273213706   0.625172911527516   1.0000000
N2   N   0.944226046970268   0.388720471750219   0.625077029780838   1.0000000
N2   N   0.110798386913817   0.388716748734097   0.124862722965579   1.0000000
N2   N   0.277569707636768   0.888799916161513   0.124894348780028   1.0000000
N2   N   0.610925267530245   0.888841885091469   0.124865653410911   1.0000000
N2   N   0.443591453358786   0.388462393346055   0.122654715036289   1.0000000
N2   N   0.944226046970272   0.888838908553377   0.124922970219166   1.0000000
N2   N   0.777661611298500   0.388679186141380   0.124112343401854   1.0000000
N2   N   0.277564175290394   0.555418896030054   0.625127089013930   1.0000000
N2   N   0.110798386913817   0.055414971513048   0.625137277034422   1.0000000
N2   N   0.611217723617228   0.555943007338091   0.627555297385527   1.0000000
N2   N   0.444261897913373   0.055465360363289   0.625080955681955   1.0000000
N2   N   0.944224975319759   0.555420463653104   0.625091376150686   1.0000000
N2   N   0.110882968437244   0.555413900822042   0.124841899773589   1.0000000
N2   N   0.777572285925281   0.055452809629311   0.625222484753331   1.0000000
N2   N   0.277564175290394   0.055478612593672   0.124872910986066   1.0000000
N2   N   0.444282036995064   0.555466139221704   0.124071969713946   1.0000000
N2   N   0.777602703156981   0.555468018245161   0.124122103713287   1.0000000
N2   N   0.610925267530245   0.055416715772102   0.124865653410911   1.0000000
N2   N   0.444282036995064   0.555466139221704   0.625928030286051   1.0000000
N2   N   0.944174289996600   0.055449977430625   0.124824482480519   1.0000000
N2   N   0.277569707636768   0.722103124808584   0.625105651219974   1.0000000
N2   N   0.110725929067349   0.222029631200340   0.625210531211391   1.0000000
N2   N   0.444282036995064   0.222149231106700   0.625928030286051   1.0000000
N2   N   0.610991038103310   0.722308198329574   0.625925545190358   1.0000000
N2   N   0.944224975319759   0.722137844999996   0.625091376150686   1.0000000
N2   N   0.777602325294295   0.222028385413913   0.625172911527516   1.0000000
N2   N   0.110887384291928   0.722110358812630   0.124863566627436   1.0000000
N2   N   0.444261897913373   0.722129870883422   0.124919044318051   1.0000000
N2   N   0.277307316090801   0.221974812202728   0.123814831781564   1.0000000
N2   N   0.777661611298500   0.722315758490432   0.124112343401853   1.0000000
N2   N   0.610991038103310   0.222016173107054   0.124074454809645   1.0000000
N2   N   0.944174289996600   0.222057645899311   0.124824482480519   1.0000000
N2   N   0.110798386913817   0.388716748734097   0.625137277034422   1.0000000
N2   N   0.277569707636768   0.888799916161513   0.625105651219974   1.0000000
N2   N   0.610925267530245   0.888841885091469   0.625134346589093   1.0000000
N2   N   0.443591453358785   0.388462393346055   0.627345284963702   1.0000000
N2   N   0.944226046970268   0.888838908553377   0.625077029780837   1.0000000
N2   N   0.110882968437245   0.888802400948523   0.124841899773589   1.0000000
N2   N   0.777661611298500   0.388679186141380   0.625887656598148   1.0000000
N2   N   0.444244312618088   0.888788822975704   0.124870224479211   1.0000000
N2   N   0.277307316090801   0.388665837221403   0.123814831781564   1.0000000
N2   N   0.277564175290395   0.555418896030054   0.124872910986066   1.0000000
N2   N   0.611217723617228   0.388608049612476   0.122444702614472   1.0000000
N2   N   0.777602325294294   0.888907273213706   0.124827088472481   1.0000000
N2   N   0.944226046970272   0.388720471750219   0.124922970219167   1.0000000
N2   N   0.110882968437244   0.555413900822042   0.625158100226414   1.0000000
N2   N   0.277564175290395   0.055478612593673   0.625127089013930   1.0000000
N2   N   0.777602703156980   0.555468018245161   0.625877896286714   1.0000000
N2   N   0.610925267530245   0.055416715772102   0.625134346589093   1.0000000
N2   N   0.944174289996600   0.055449977430625   0.625175517519480   1.0000000
N2   N   0.058776655292910   0.112865526368677   0.375000000000000   1.0000000
N2   N   0.555880581336447   0.627457235395598   0.375000000000000   1.0000000
N2   N   0.386985775463032   0.101910376270741   0.375000000000000   1.0000000
N2   N   0.886367013998896   0.609850173666122   0.375000000000000   1.0000000
N2   N   0.724996087041666   0.110937838991523   0.375000000000000   1.0000000
N2   N   0.055837202774356   0.777912667472673   0.875000000000000   1.0000000
N2   N   0.389134242676524   0.777913241538391   0.875000000000000   1.0000000
N2   N   0.222476464704724   0.277904899019033   0.875000000000000   1.0000000
N2   N   0.722464901419625   0.777875490899312   0.875000000000000   1.0000000
N2   N   0.555768388904903   0.277872276230338   0.875000000000000   1.0000000
N2   N   0.889139295074767   0.277920994315428   0.875000000000000   1.0000000
N2   N   0.220149715314922   0.776741524324128   0.375000000000000   1.0000000
N2   N   0.058776655292910   0.279244462257569   0.375000000000000   1.0000000
N2   N   0.387159279842123   0.263396399674929   0.375000000000000   1.0000000
N2   N   0.556020452667828   0.785210046811935   0.375000000000000   1.0000000
N2   N   0.890479691946041   0.779905699219697   0.375000000000000   1.0000000
N2   N   0.725109147419591   0.275059076245479   0.375000000000000   1.0000000
N2   N   0.055806172298011   0.944553455478276   0.875000000000000   1.0000000
N2   N   0.389134242676524   0.944554334471467   0.875000000000000   1.0000000
N2   N   0.222458222931202   0.444585028941056   0.875000000000000   1.0000000
N2   N   0.555786861415984   0.444560097374657   0.875000000000000   1.0000000
N2   N   0.722465901875156   0.944556036561891   0.875000000000000   1.0000000
N2   N   0.889158909389675   0.444599633329137   0.875000000000000   1.0000000
N2   N   0.056130554682820   0.445236234718971   0.375000000000000   1.0000000
N2   N   0.220277702128140   0.941224513171003   0.375000000000000   1.0000000
N2   N   0.556151978912807   0.944742656123066   0.375000000000000   1.0000000
N2   N   0.387159279842123   0.457096213500536   0.375000000000000   1.0000000
N2   N   0.892008350165331   0.947210540161903   0.375000000000000   1.0000000
N2   N   0.724308313733754   0.441016826626368   0.375000000000000   1.0000000
N2   N   0.222467551803028   0.611253970686579   0.875000000000000   1.0000000
N2   N   0.055807928399747   0.111230684370195   0.875000000000000   1.0000000
N2   N   0.555768388904904   0.611229446007903   0.875000000000000   1.0000000
N2   N   0.389110791438021   0.111189088659388   0.875000000000000   1.0000000
N2   N   0.889203208786550   0.611268271059954   0.875000000000000   1.0000000
N2   N   0.053753443605798   0.610740134947330   0.375000000000000   1.0000000
N2   N   0.722465901875156   0.111243198646605   0.875000000000000   1.0000000
N2   N   0.221690705165176   0.108049303359194   0.375000000000000   1.0000000
N2   N   0.386985775463031   0.618408732525632   0.375000000000000   1.0000000
N2   N   0.724308313733753   0.616624820440720   0.375000000000000   1.0000000
N2   N   0.556020452667828   0.104143739189227   0.375000000000000   1.0000000
N2   N   0.389110791438021   0.611255036111976   0.875000000000000   1.0000000
N2   N   0.892359933692611   0.112846633512977   0.375000000000000   1.0000000
N2   N   0.222484478514157   0.777908905923745   0.875000000000000   1.0000000
N2   N   0.055807928399747   0.277910577362886   0.875000000000000   1.0000000
N2   N   0.389123800402613   0.277855292103318   0.875000000000000   1.0000000
N2   N   0.555788655712897   0.777894238793665   0.875000000000000   1.0000000
N2   N   0.889158909389675   0.777892609393872   0.875000000000000   1.0000000
N2   N   0.722464901419625   0.277922743853651   0.875000000000000   1.0000000
N2   N   0.053753443605798   0.776346641991807   0.375000000000000   1.0000000
N2   N   0.387445758272119   0.779705530614074   0.375000000000000   1.0000000
N2   N   0.226642527122127   0.279987930227734   0.375000000000000   1.0000000
N2   N   0.725109147419591   0.783383404507439   0.375000000000000   1.0000000
N2   N   0.555880581336450   0.261756679274189   0.375000000000000   1.0000000
N2   N   0.892008350165327   0.278131143336768   0.375000000000000   1.0000000
N2   N   0.055806172298011   0.444586050153059   0.875000000000000   1.0000000
N2   N   0.222467551803029   0.944546914449780   0.875000000000000   1.0000000
N2   N   0.555799293296568   0.944566313314949   0.875000000000000   1.0000000
N2   N   0.389123800402613   0.444601841632628   0.875000000000000   1.0000000
N2   N   0.889139295074767   0.944551634092673   0.875000000000000   1.0000000
N2   N   0.056130554682819   0.944227653297179   0.375000000000000   1.0000000
N2   N   0.722511908960518   0.444612222967161   0.875000000000000   1.0000000
N2   N   0.387445758272119   0.941073560991386   0.375000000000000   1.0000000
N2   N   0.221690705165175   0.446974735139316   0.375000000000000   1.0000000
N2   N   0.220277702128140   0.612386522290473   0.375000000000000   1.0000000
N2   N   0.724996087041666   0.947391581383477   0.375000000000000   1.0000000
N2   N   0.890479691946038   0.443907326059687   0.375000000000000   1.0000000
N2   N   0.055837202774356   0.611257868635016   0.875000000000000   1.0000000
N2   N   0.222458222931202   0.111206527323481   0.875000000000000   1.0000000
N2   N   0.722511908960518   0.611233019326698   0.875000000000000   1.0000000
N2   N   0.555788655712897   0.111227750252567   0.875000000000000   1.0000000
N2   N   0.889140520086494   0.111236926709916   0.875000000000000   1.0000000
B2   B   0.112505602001916   0.055364149116189   0.375000000000000   1.0000000
B2   B   0.614476788956751   0.577678234382745   0.375000000000000   1.0000000
B2   B   0.444460199743196   0.050574450923618   0.375000000000000   1.0000000
B2   B   0.942681838849362   0.554902654400553   0.375000000000000   1.0000000
B2   B   0.781425949305241   0.057379641319286   0.375000000000000   1.0000000
B2   B   0.111369060355851   0.722351196844590   0.875000000000000   1.0000000
B2   B   0.444677491554102   0.722260951072007   0.875000000000000   1.0000000
B2   B   0.278179252888639   0.222442894730544   0.875000000000000   1.0000000
B2   B   0.777931266667092   0.722174607986573   0.875000000000000   1.0000000
B2   B   0.611279842536179   0.222455182887217   0.875000000000000   1.0000000
B2   B   0.944730434497562   0.222389160754079   0.875000000000000   1.0000000
B2   B   0.276462060970318   0.722735641556042   0.375000000000000   1.0000000
B2   B   0.116544678938966   0.224939006136146   0.375000000000000   1.0000000
B2   B   0.442649195170086   0.211846517919879   0.375000000000000   1.0000000
B2   B   0.613290654216376   0.733319545345223   0.375000000000000   1.0000000
B2   B   0.942681838849362   0.721112517782149   0.375000000000000   1.0000000
B2   B   0.781122993439245   0.221738621403394   0.375000000000000   1.0000000
B2   B   0.111389941040515   0.889022403445873   0.875000000000000   1.0000000
B2   B   0.444679724223670   0.889006528778496   0.875000000000000   1.0000000
B2   B   0.278179252888639   0.389069691491424   0.875000000000000   1.0000000
B2   B   0.611258464736577   0.389087770543118   0.875000000000000   1.0000000
B2   B   0.777977285036897   0.888894662156276   0.875000000000000   1.0000000
B2   B   0.944683137828980   0.389065981319459   0.875000000000000   1.0000000
B2   B   0.112505602001915   0.390474786219052   0.375000000000000   1.0000000
B2   B   0.276462060970318   0.887059752747609   0.375000000000000   1.0000000
B2   B   0.613526028860720   0.893188675136680   0.375000000000000   1.0000000
B2   B   0.946044097024457   0.890322483780080   0.375000000000000   1.0000000
B2   B   0.779985168157275   0.387063115301751   0.375000000000000   1.0000000
B2   B   0.278090130090565   0.555673182180770   0.875000000000000   1.0000000
B2   B   0.111435571872656   0.055715870291242   0.875000000000000   1.0000000
B2   B   0.611258464736577   0.555504027526781   0.875000000000000   1.0000000
B2   B   0.444677491554102   0.055749873815436   0.875000000000000   1.0000000
B2   B   0.944664305564240   0.555703993589866   0.875000000000000   1.0000000
B2   B   0.109903786163534   0.556000389027666   0.375000000000000   1.0000000
B2   B   0.778007040482242   0.055670186907789   0.875000000000000   1.0000000
B2   B   0.276686379827592   0.052052187474431   0.375000000000000   1.0000000
B2   B   0.442649195170086   0.564136010583547   0.375000000000000   1.0000000
B2   B   0.773665427556239   0.553499380444791   0.375000000000000   1.0000000
B2   B   0.613526028860720   0.053670687057362   0.375000000000000   1.0000000
B2   B   0.444724727313709   0.555598772553782   0.875000000000000   1.0000000
B2   B   0.948353588738010   0.058013715574601   0.375000000000000   1.0000000
B2   B   0.278048059412095   0.722337658202674   0.875000000000000   1.0000000
B2   B   0.111490361156547   0.222411847244938   0.875000000000000   1.0000000
B2   B   0.444724727313709   0.222459288093264   0.875000000000000   1.0000000
B2   B   0.611279842536179   0.722157992982290   0.875000000000000   1.0000000
B2   B   0.944664305564240   0.722293645307704   0.875000000000000   1.0000000
B2   B   0.777977285036897   0.222415956213934   0.875000000000000   1.0000000
B2   B   0.109350146673252   0.721341740003289   0.375000000000000   1.0000000
B2   B   0.444460199743195   0.727219082152921   0.375000000000000   1.0000000
B2   B   0.281406366578296   0.220945654349768   0.375000000000000   1.0000000
B2   B   0.779985168157275   0.726255386188855   0.375000000000000   1.0000000
B2   B   0.613290654216372   0.213304442204484   0.375000000000000   1.0000000
B2   B   0.948353588738008   0.223673206496743   0.375000000000000   1.0000000
B2   B   0.111435571872656   0.389053034914743   0.875000000000000   1.0000000
B2   B   0.278048059412095   0.889043734542753   0.875000000000000   1.0000000
B2   B   0.611317492440501   0.888935887395007   0.875000000000000   1.0000000
B2   B   0.444805814400631   0.389069573866979   0.875000000000000   1.0000000
B2   B   0.944683137828981   0.888950489842851   0.875000000000000   1.0000000
B2   B   0.109903786163534   0.887236730469197   0.375000000000000   1.0000000
B2   B   0.777931266667098   0.389089992013851   0.875000000000000   1.0000000
B2   B   0.444644845212559   0.888989089272946   0.375000000000000   1.0000000
B2   B   0.281406366578295   0.393794045561855   0.375000000000000   1.0000000
B2   B   0.276686379827592   0.557967525686493   0.375000000000000   1.0000000
B2   B   0.614476788956758   0.370131887907336   0.375000000000000   1.0000000
B2   B   0.781122993439245   0.892717705369184   0.375000000000000   1.0000000
B2   B   0.946044097024458   0.389054946577715   0.375000000000000   1.0000000
B2   B   0.111389941040515   0.555700870927973   0.875000000000000   1.0000000
B2   B   0.278090130090565   0.055750281243127   0.875000000000000   1.0000000
B2   B   0.777930886635432   0.555632109984384   0.875000000000000   1.0000000
B2   B   0.611317492440501   0.055714938378819   0.875000000000000   1.0000000
B2   B   0.944730434497562   0.055674607076818   0.875000000000000   1.0000000
B2   B   0.055368253205226   0.111072299877622   0.125233115340752   1.0000000
B2   B   0.555532958514287   0.610752115382519   0.124373946487692   1.0000000
B2   B   0.388894900992521   0.111488521176627   0.125289562437889   1.0000000
B2   B   0.888263605668836   0.610798469501090   0.125119202188176   1.0000000
B2   B   0.721994709076954   0.111007710408622   0.125131531304133   1.0000000
B2   B   0.055225113016209   0.777657296606346   0.624844074066941   1.0000000
B2   B   0.388769980775729   0.777589213466384   0.624774516447780   1.0000000
B2   B   0.222112810343145   0.277723071838244   0.625062939219944   1.0000000
B2   B   0.721922538397359   0.777588608242180   0.625167134514220   1.0000000
B2   B   0.555532958514285   0.278114176465087   0.625626053512309   1.0000000
B2   B   0.888626249727651   0.277608731585344   0.624836451320505   1.0000000
B2   B   0.222034416388326   0.777683874860833   0.125120653747873   1.0000000
B2   B   0.055368253205226   0.277629286660942   0.125233115340752   1.0000000
B2   B   0.388743518627061   0.278036677845804   0.124652530769383   1.0000000
B2   B   0.555409262176394   0.777550019440392   0.125077531466821   1.0000000
B2   B   0.888484907954871   0.777607717408771   0.125034501966321   1.0000000
B2   B   0.721922538397359   0.277667263488513   0.124832865485788   1.0000000
B2   B   0.055330651855122   0.944433119704329   0.624777596653256   1.0000000
B2   B   0.388769980775729   0.944514100642686   0.624774516447780   1.0000000
B2   B   0.222118499215551   0.444184287756225   0.624849884859133   1.0000000
B2   B   0.555178440053702   0.444255886693515   0.618405130218652   1.0000000
B2   B   0.721994709076954   0.944320332001659   0.624868468695866   1.0000000
B2   B   0.888484907954871   0.444210523879437   0.624965498033686   1.0000000
B2   B   0.055330651855122   0.444230865484115   0.125222403346746   1.0000000
B2   B   0.222103743608318   0.944569988178967   0.125221374488647   1.0000000
B2   B   0.555380681494049   0.944357007413687   0.125192629888875   1.0000000
B2   B   0.388743518627061   0.444040174114596   0.124652530769382   1.0000000
B2   B   0.888626249727651   0.944350851475652   0.125163548679495   1.0000000
B2   B   0.721499257325190   0.444043193883754   0.124012397969972   1.0000000
B2   B   0.222103743608318   0.610867088762687   0.624778625511352   1.0000000
B2   B   0.055368253205226   0.111072299877622   0.624766884659250   1.0000000
B2   B   0.555532958514285   0.610752115382519   0.625626053512311   1.0000000
B2   B   0.388894900992521   0.111488521176628   0.624710437562113   1.0000000
B2   B   0.888263605668836   0.610798469501090   0.624880797811819   1.0000000
B2   B   0.055225113016209   0.610901149743202   0.125155925933062   1.0000000
B2   B   0.721994709076954   0.111007710408622   0.624868468695866   1.0000000
B2   B   0.222118499215551   0.111267544792661   0.125150115140860   1.0000000
B2   B   0.388894900992521   0.610739713149236   0.125289562437889   1.0000000
B2   B   0.721499257325193   0.610789396774780   0.124012397969971   1.0000000
B2   B   0.555409262176394   0.111192576069338   0.125077531466821   1.0000000
B2   B   0.388894900992521   0.610739713149236   0.624710437562113   1.0000000
B2   B   0.888657994427435   0.110995663880388   0.125104083684470   1.0000000
B2   B   0.222034416388326   0.777683874860833   0.624879346252116   1.0000000
B2   B   0.055368253205226   0.277629286660942   0.624766884659250   1.0000000
B2   B   0.388743518627061   0.278036677845804   0.625347469230626   1.0000000
B2   B   0.555409262176394   0.777550019440392   0.624922468533176   1.0000000
B2   B   0.888484907954871   0.777607717408771   0.624965498033686   1.0000000
B2   B   0.721922538397359   0.277667263488510   0.625167134514220   1.0000000
B2   B   0.055225113016209   0.777657296606346   0.125155925933062   1.0000000
B2   B   0.388769980775729   0.777589213466384   0.125225483552226   1.0000000
B2   B   0.222112810343147   0.277723071838244   0.124937060780052   1.0000000
B2   B   0.721922538397359   0.777588608242180   0.124832865485788   1.0000000
B2   B   0.555532958514287   0.278114176465089   0.124373946487692   1.0000000
B2   B   0.888626249727651   0.277608731585344   0.125163548679495   1.0000000
B2   B   0.055330651855122   0.444230865484115   0.624777596653256   1.0000000
B2   B   0.222103743608318   0.944569988178967   0.624778625511352   1.0000000
B2   B   0.555380681494049   0.944357007413687   0.624807370111127   1.0000000
B2   B   0.388743518627061   0.444040174114596   0.625347469230626   1.0000000
B2   B   0.888626249727651   0.944350851475652   0.624836451320505   1.0000000
B2   B   0.055330651855122   0.944433119704329   0.125222403346746   1.0000000
B2   B   0.721499257325193   0.444043193883754   0.625987602030028   1.0000000
B2   B   0.388769980775729   0.944514100642686   0.125225483552226   1.0000000
B2   B   0.222118499215552   0.444184287756225   0.125150115140860   1.0000000
B2   B   0.222103743608318   0.610867088762687   0.125221374488646   1.0000000
B2   B   0.555178440053702   0.444255886693515   0.131594869781349   1.0000000
B2   B   0.721994709076954   0.944320332001659   0.125131531304133   1.0000000
B2   B   0.888484907954871   0.444210523879437   0.125034501966321   1.0000000
B2   B   0.055225113016209   0.610901149743202   0.624844074066941   1.0000000
B2   B   0.222118499215552   0.111267544792661   0.624849884859133   1.0000000
B2   B   0.721499257325190   0.610789396774780   0.625987602030028   1.0000000
B2   B   0.555409262176394   0.111192576069338   0.624922468533176   1.0000000
B2   B   0.888657994427435   0.110995663880388   0.624895916315533   1.0000000


