data_1
_audit_creation_method   'vasp2cif'
_cell_length_a    17.52789999999977
_cell_length_b    17.52789999999977
_cell_length_c    15.0
_cell_angle_alpha    90.0
_cell_angle_beta    90.0
_cell_angle_gamma    119.99999999999916

_symmetry_space_group_name_H-M    'P 1'
loop_
_atom_site_label
_atom_site_type_symbol
_atom_site_fract_x
_atom_site_fract_y
_atom_site_fract_z
_atom_site_occupancy
B2   B   0.905759682086471   0.953595212342306   0.111007564031317   1.0000000
B2   B   0.905439780148096   0.095957478891570   0.111029598043155   1.0000000
B2   B   0.905216832381026   0.238385868577386   0.111047487835824   1.0000000
B2   B   0.904917453859589   0.380869098136209   0.110982743739743   1.0000000
B2   B   0.904140704899156   0.523156149995048   0.111022386280307   1.0000000
B2   B   0.902263897269691   0.665555534156642   0.111013565395678   1.0000000
B2   B   0.904829185108608   0.810184767502839   0.111051471774251   1.0000000
B2   B   0.047407163617314   0.952292753283157   0.110979417386417   1.0000000
B2   B   0.047761117991452   0.095244308174861   0.110993696031058   1.0000000
B2   B   0.047752542600403   0.238112998711270   0.110987434970380   1.0000000
B2   B   0.047501793077174   0.381026871647696   0.111007363499501   1.0000000
B2   B   0.046931963248650   0.523762071453478   0.111024652794854   1.0000000
B2   B   0.046052157790701   0.666194193597236   0.111016915919081   1.0000000
B2   B   0.046306526349550   0.808883165234579   0.110980100913400   1.0000000
B2   B   0.189506872945967   0.951558515287929   0.110990365243636   1.0000000
B2   B   0.189730073455848   0.094093846945153   0.111014554440702   1.0000000
B2   B   0.189736654275613   0.236838305295632   0.110969911268592   1.0000000
B2   B   0.189809453683031   0.380554283143372   0.110945206327528   1.0000000
B2   B   0.189159946588888   0.524157553932279   0.111073431055457   1.0000000
B2   B   0.189257177619464   0.666773529363577   0.111093836505936   1.0000000
B2   B   0.189234089671114   0.809111403696230   0.111008233117220   1.0000000
B2   B   0.332533007825041   0.951853015465104   0.111012010012263   1.0000000
B2   B   0.332553255773492   0.093891498526910   0.111060913761503   1.0000000
B2   B   0.331959961012826   0.235356895007470   0.110982512876262   1.0000000
B2   B   0.331264217843967   0.377099743848295   0.110876760249448   1.0000000
B2   B   0.330360061806196   0.525136917837988   0.110774765334580   1.0000000
B2   B   0.332191709549802   0.667704535397166   0.111079893010248   1.0000000
B2   B   0.332427504296984   0.809770661904329   0.111101579316276   1.0000000
B2   B   0.475859518483947   0.952559539018063   0.110997438623224   1.0000000
B2   B   0.475977468787965   0.094380791820834   0.110988107172406   1.0000000
B2   B   0.476156609216436   0.235914430800819   0.110995879927214   1.0000000
B2   B   0.475633065905770   0.374428511019447   0.111659596914740   1.0000000
B2   B   0.475405215026640   0.670299624327650   0.111029302948708   1.0000000
B2   B   0.475914508813846   0.810973513211546   0.111053727115363   1.0000000
B2   B   0.619461092238997   0.953697251647862   0.110981836829519   1.0000000
B2   B   0.619294078998822   0.095197728887633   0.110966462838463   1.0000000
B2   B   0.619763877125647   0.237247739136134   0.111076269657985   1.0000000
B2   B   0.622929445167450   0.382820762075369   0.110753599631410   1.0000000
B2   B   0.628756073756500   0.673752153554162   0.111058358362199   1.0000000
B2   B   0.620659023539762   0.812785307731858   0.111021175549628   1.0000000
B2   B   0.763005033904128   0.953978297196561   0.110995061928105   1.0000000
B2   B   0.762534967905361   0.095916508768532   0.111045713816314   1.0000000
B2   B   0.762437737686723   0.238095454400170   0.111023983263470   1.0000000
B2   B   0.762272838016124   0.380579969281973   0.111065893022635   1.0000000
B2   B   0.758229479547547   0.520871641228159   0.110665724571468   1.0000000
B2   B   0.759557785083789   0.666302453299946   0.111004154229646   1.0000000
B2   B   0.764221888499637   0.812228247965242   0.111043511441674   1.0000000
P2   P   0.482126285597131   0.522912815173281   0.111593561262097   1.0000000
N2   N   0.953169267426552   0.906092263443438   0.110983591177831   1.0000000
N2   N   0.953234637735598   0.048811181185090   0.110997223992825   1.0000000
N2   N   0.953100484392928   0.191037324649859   0.111019307775619   1.0000000
N2   N   0.953044085289823   0.333328081895964   0.110980329233392   1.0000000
N2   N   0.952942455394813   0.475870679695395   0.110967373003985   1.0000000
N2   N   0.952117022666335   0.618866857891649   0.110987802640758   1.0000000
N2   N   0.952245496519950   0.762207151442425   0.111018047267679   1.0000000
N2   N   0.094833515674199   0.904567763987020   0.110942994295355   1.0000000
N2   N   0.095116359375150   0.047604651105833   0.110979538928224   1.0000000
N2   N   0.095227370335764   0.190484740351605   0.110964575182971   1.0000000
N2   N   0.095419456382169   0.333433036378728   0.110965658356139   1.0000000
N2   N   0.094985091596298   0.476218640131670   0.111036005501560   1.0000000
N2   N   0.094773766363658   0.618997398965635   0.111033224789433   1.0000000
N2   N   0.094670867145872   0.761720355871056   0.110969574920632   1.0000000
N2   N   0.237411254581210   0.904245468916119   0.110973048433433   1.0000000
N2   N   0.237312994531679   0.046662684447083   0.111027039654639   1.0000000
N2   N   0.236964979181756   0.189157401466220   0.110962519206668   1.0000000
N2   N   0.237113290821112   0.332425965637084   0.110918430717551   1.0000000
N2   N   0.236713719106223   0.476265491437580   0.110956701777968   1.0000000
N2   N   0.237389643745551   0.619298534428595   0.111090308776191   1.0000000
N2   N   0.237430678344093   0.761855318986970   0.111081217093598   1.0000000
N2   N   0.380418365744727   0.904542314482555   0.111023887245271   1.0000000
N2   N   0.380289648961497   0.046514994592591   0.110995861599563   1.0000000
N2   N   0.379814139514301   0.188413275405579   0.111025528409832   1.0000000
N2   N   0.378934379239240   0.330309751800972   0.111044130251791   1.0000000
N2   N   0.375853516513154   0.474889571661107   0.110521583521522   1.0000000
N2   N   0.380086458124339   0.619964447281628   0.110955272916897   1.0000000
N2   N   0.380395874385518   0.762442055155916   0.111104658536748   1.0000000
N2   N   0.523747480940067   0.905513351777228   0.110994777300907   1.0000000
N2   N   0.523697926022184   0.046972201138673   0.110937394989636   1.0000000
N2   N   0.523534202293381   0.188240152270644   0.110980232329044   1.0000000
N2   N   0.523061935358318   0.328979496540498   0.111009649845538   1.0000000
N2   N   0.523711959136965   0.467779159502934   0.113041880974102   1.0000000
N2   N   0.526454420424830   0.626001118147837   0.111162249246868   1.0000000
N2   N   0.523790367989373   0.764092820954408   0.110999665095057   1.0000000
N2   N   0.667480136172773   0.907366726485268   0.110962188673366   1.0000000
N2   N   0.667198594158026   0.048169397858587   0.110979650661548   1.0000000
N2   N   0.667216748199391   0.189289711711879   0.110985467125088   1.0000000
N2   N   0.667421679294529   0.330136920603878   0.111160978952452   1.0000000
N2   N   0.668483994140326   0.471691986633838   0.109994448809437   1.0000000
N2   N   0.668676897624700   0.626248390759387   0.110917479429051   1.0000000
N2   N   0.669163485647626   0.768502264632701   0.111034742033777   1.0000000
N2   N   0.811260500146527   0.907658238570223   0.110985837742993   1.0000000
N2   N   0.810494165642998   0.048946978495253   0.111021423795963   1.0000000
N2   N   0.810363116016321   0.190626305541259   0.111040174250756   1.0000000
N2   N   0.810483078452334   0.332572226894693   0.110993753309924   1.0000000
N2   N   0.811051483482363   0.475272440335006   0.111045496294222   1.0000000
N2   N   0.809203487576729   0.619116128204701   0.110943230490007   1.0000000
N2   N   0.811330008654452   0.764805719822810   0.111071959523288   1.0000000


