data_1
_audit_creation_method   'vasp2cif'
_cell_length_a    17.52789999999977
_cell_length_b    17.52789999999977
_cell_length_c    15.0
_cell_angle_alpha    90.0
_cell_angle_beta    90.0
_cell_angle_gamma    119.99999999999916

_symmetry_space_group_name_H-M    'P 1'
loop_
_atom_site_label
_atom_site_type_symbol
_atom_site_fract_x
_atom_site_fract_y
_atom_site_fract_z
_atom_site_occupancy
B2   B   0.902672475917164   0.949859190854998   0.106979763416171   1.0000000
B2   B   0.903612919798896   0.093022810366605   0.109335487584474   1.0000000
B2   B   0.904283560413689   0.236088897515438   0.109012285728215   1.0000000
B2   B   0.904634966794129   0.379161891827013   0.106820339439396   1.0000000
B2   B   0.905905811738468   0.522622677509828   0.104416508537027   1.0000000
B2   B   0.906236000125626   0.666120632997826   0.103351611175241   1.0000000
B2   B   0.904656792352357   0.808925594135629   0.102506621365893   1.0000000
B2   B   0.047432613293569   0.952550112678705   0.106616886050618   1.0000000
B2   B   0.047727495629619   0.095409405137752   0.106858254837310   1.0000000
B2   B   0.047787705840325   0.237535177522815   0.107610432102504   1.0000000
B2   B   0.047528110591518   0.379771461576049   0.107787744292025   1.0000000
B2   B   0.047463322101433   0.522789848108884   0.108426511257763   1.0000000
B2   B   0.047579723050107   0.666360628997524   0.108880661157529   1.0000000
B2   B   0.047639486727293   0.809704682934632   0.107352077620903   1.0000000
B2   B   0.190533833312845   0.953222675027465   0.108819622126314   1.0000000
B2   B   0.190889467349457   0.096424031211703   0.104571824435542   1.0000000
B2   B   0.193267703889867   0.241412788944976   0.103576849842847   1.0000000
B2   B   0.191570016375752   0.381741412745870   0.104641865680413   1.0000000
B2   B   0.189756675815619   0.523450865263664   0.106388608784898   1.0000000
B2   B   0.188759331892535   0.666566205484600   0.110884122395824   1.0000000
B2   B   0.189937390034988   0.809942040918259   0.112218200047176   1.0000000
B2   B   0.333112741250705   0.952935666019534   0.110861152241155   1.0000000
B2   B   0.333872888673441   0.096410321793425   0.106886073449376   1.0000000
B2   B   0.334255117688610   0.239873197084916   0.103708352839696   1.0000000
B2   B   0.341316311769857   0.390343406453599   0.107000816100738   1.0000000
B2   B   0.333412017460575   0.525477834928898   0.105021936123051   1.0000000
B2   B   0.329507936992032   0.667270439503627   0.107279399145413   1.0000000
B2   B   0.332151850545857   0.809881541335357   0.112512655275252   1.0000000
B2   B   0.475519209735149   0.951305518420064   0.110327322637155   1.0000000
B2   B   0.476270670968786   0.094995609005874   0.107748131043332   1.0000000
B2   B   0.477071351848210   0.238741062279419   0.114118337404962   1.0000000
B2   B   0.469441397283605   0.374199838020458   0.146863602510800   1.0000000
B2   B   0.494690409877220   0.585022285148756   0.133274168021949   1.0000000
B2   B   0.467522356870744   0.661674050330322   0.121622808173426   1.0000000
B2   B   0.474104524966762   0.807273408415122   0.113522506083013   1.0000000
B2   B   0.617499283702437   0.948715067652370   0.110729977728904   1.0000000
B2   B   0.618582141202592   0.093217245495184   0.107940403280066   1.0000000
B2   B   0.619185870517940   0.237063464572044   0.109196991289370   1.0000000
B2   B   0.619922211829779   0.380550596910554   0.126659345224879   1.0000000
B2   B   0.637306376800563   0.530998769350796   0.153566253815058   1.0000000
B2   B   0.612363334790291   0.651335943066421   0.113941730610767   1.0000000
B2   B   0.614619170804212   0.802204907443236   0.113418122986189   1.0000000
B2   B   0.759274078347993   0.948076090447020   0.109621915005122   1.0000000
B2   B   0.760831871634232   0.092357190951517   0.109467752404172   1.0000000
B2   B   0.761592984066481   0.235951570874334   0.107462619781974   1.0000000
B2   B   0.762081670900866   0.379281236749439   0.107362647444999   1.0000000
B2   B   0.765085594422336   0.522590785235022   0.109789267169735   1.0000000
B2   B   0.765031352636463   0.665959555864686   0.103848471220620   1.0000000
B2   B   0.757061702363509   0.803207054761157   0.105914882042695   1.0000000
N2   N   0.952115924239320   0.904173559248762   0.105375703373131   1.0000000
N2   N   0.951580354328010   0.045978406719607   0.108216956070778   1.0000000
N2   N   0.951927186871803   0.188643672346602   0.109421163109323   1.0000000
N2   N   0.952014770550886   0.331438330994874   0.108317577732760   1.0000000
N2   N   0.952616865301376   0.474509385829882   0.106424600510148   1.0000000
N2   N   0.953233902276711   0.618124160382965   0.105066741353562   1.0000000
N2   N   0.952918194780324   0.761701246313235   0.103449072361433   1.0000000
N2   N   0.095251489860833   0.905142714215255   0.107949890731630   1.0000000
N2   N   0.095358480771800   0.047916493345030   0.106328812019497   1.0000000
N2   N   0.096490913307968   0.191258791708860   0.106161915814074   1.0000000
N2   N   0.095409083332861   0.332646392970252   0.106828626522666   1.0000000
N2   N   0.094484866782276   0.475001160996973   0.108012787486888   1.0000000
N2   N   0.094109117782164   0.618264573079539   0.110519102038585   1.0000000
N2   N   0.094933398478982   0.761909849337858   0.110384378457441   1.0000000
N2   N   0.237796617017502   0.905344348562667   0.111637329788216   1.0000000
N2   N   0.238332061886553   0.048478331133259   0.106372186701979   1.0000000
N2   N   0.238772617943166   0.191606644566090   0.101540838095722   1.0000000
N2   N   0.242275355409825   0.337530491317712   0.103489819405424   1.0000000
N2   N   0.237342531825312   0.476284655278504   0.103980215597340   1.0000000
N2   N   0.234884244047060   0.618750848946407   0.107661139034936   1.0000000
N2   N   0.236843751059197   0.762097500023376   0.113066383898384   1.0000000
N2   N   0.380251663002610   0.905062368509948   0.112055859603137   1.0000000
N2   N   0.380964826682402   0.048035257091509   0.108409453125052   1.0000000
N2   N   0.381611432819742   0.191354109320387   0.107159144193390   1.0000000
N2   N   0.382030715638597   0.334535830871617   0.109707996476315   1.0000000
N2   N   0.389434333200214   0.487300846268221   0.108355147231534   1.0000000
N2   N   0.374788653787043   0.620038350536478   0.105195170123326   1.0000000
N2   N   0.378775022910206   0.762268971914664   0.111596238449759   1.0000000
N2   N   0.522400221056525   0.902959865027495   0.111288570957099   1.0000000
N2   N   0.523413055252558   0.046618435512112   0.108051737128521   1.0000000
N2   N   0.524078868359108   0.190057071041221   0.108431099191898   1.0000000
N2   N   0.523688529715202   0.332397971699330   0.130933963015680   1.0000000
N2   N   0.519652777817435   0.758061457947599   0.118146152040266   1.0000000
N2   N   0.663916256079485   0.899533175305490   0.111069957621605   1.0000000
N2   N   0.665612688723190   0.044724157788083   0.109236017667387   1.0000000
N2   N   0.666421053104091   0.188657696307471   0.107092251330688   1.0000000
N2   N   0.666782763646930   0.332176830634841   0.112449217849085   1.0000000
N2   N   0.672910053506972   0.475677997044135   0.128846173614835   1.0000000
N2   N   0.672880994425941   0.617528305464117   0.114852533388087   1.0000000
N2   N   0.660149418601621   0.751733537410721   0.109727614646238   1.0000000
N2   N   0.806568053714569   0.900286775959483   0.107676015103394   1.0000000
N2   N   0.807995884030414   0.044319467029117   0.109897511984820   1.0000000
N2   N   0.808888055206101   0.187974567427364   0.108822335106748   1.0000000
N2   N   0.809379407391678   0.331206248013950   0.106289087878113   1.0000000
N2   N   0.811429331531961   0.474360348983157   0.103833151210921   1.0000000
N2   N   0.812470441304113   0.618019058081619   0.103800700699735   1.0000000
N2   N   0.809921452788438   0.760823039908205   0.100301467850920   1.0000000
Al2   Al   0.518603851970280   0.498925587895717   0.208790427153635   1.0000000


