data_1
_audit_creation_method   'vasp2cif'
_cell_length_a    14.93631414619966
_cell_length_b    14.936314146199727
_cell_length_c    13.341276283792837
_cell_angle_alpha    90.0
_cell_angle_beta    90.0
_cell_angle_gamma    119.99999999999984

_symmetry_space_group_name_H-M    'P 1'
loop_
_atom_site_label
_atom_site_type_symbol
_atom_site_fract_x
_atom_site_fract_y
_atom_site_fract_z
_atom_site_occupancy
O2   O   0.427509472002466   0.380421402667897   0.375000000000000   1.0000000
O2   O   0.585116714890030   0.459225024111679   0.375000000000000   1.0000000
N2   N   0.111169159435849   0.055581996907874   0.124993455415911   1.0000000
N2   N   0.611180081582506   0.555569089907477   0.125538657547764   1.0000000
N2   N   0.444556870058562   0.055621164679398   0.125024784721407   1.0000000
N2   N   0.944568771297636   0.555630385998789   0.125005427136586   1.0000000
N2   N   0.777862205399403   0.055597769366369   0.124997227392965   1.0000000
N2   N   0.111246319440463   0.722289826386895   0.625000421906044   1.0000000
N2   N   0.444556870058562   0.722269038712499   0.624975215278592   1.0000000
N2   N   0.277799877060189   0.222247295031577   0.624903236392881   1.0000000
N2   N   0.777875198456710   0.722250230886965   0.625035172380294   1.0000000
N2   N   0.611204957672818   0.222286617228306   0.624938263412837   1.0000000
N2   N   0.944497258830405   0.222261778962987   0.625032044009087   1.0000000
N2   N   0.277900602385519   0.722271611783763   0.124997458082081   1.0000000
N2   N   0.111136260552546   0.222234796942937   0.124941610587674   1.0000000
N2   N   0.444539790129578   0.222284530513572   0.125195436512273   1.0000000
N2   N   0.611204957672818   0.722251673777841   0.125061736587163   1.0000000
N2   N   0.944568771297636   0.722271718632183   0.125005427136586   1.0000000
N2   N   0.777871741711480   0.222289012490349   0.124992480392621   1.0000000
N2   N   0.111224273048319   0.888947302215197   0.624993708453187   1.0000000
N2   N   0.444567132389504   0.888950232861416   0.624992986284853   1.0000000
N2   N   0.277799877060189   0.388885915361939   0.624903236392881   1.0000000
N2   N   0.611180081582506   0.388944325008357   0.624461342452237   1.0000000
N2   N   0.777871741711480   0.888916062554458   0.625007519607378   1.0000000
N2   N   0.944530024372096   0.388942705926989   0.625013225382024   1.0000000
N2   N   0.111169159435849   0.388920495861304   0.124993455415911   1.0000000
N2   N   0.277900602385519   0.888962323935085   0.124997458082081   1.0000000
N2   N   0.611216649764368   0.888943685925872   0.125008590519320   1.0000000
N2   N   0.444455038397229   0.388894185865279   0.124999764864053   1.0000000
N2   N   0.944530024372096   0.888920651778436   0.124986774617976   1.0000000
N2   N   0.777875198456710   0.388958300903073   0.124964827619706   1.0000000
N2   N   0.277869969377250   0.555593714997864   0.624983469103863   1.0000000
N2   N   0.111169159435849   0.055581996907874   0.625006544584089   1.0000000
N2   N   0.611180081582506   0.555569089907477   0.624461342452237   1.0000000
N2   N   0.444556870058562   0.055621164679398   0.624975215278592   1.0000000
N2   N   0.944568771297636   0.555630385998789   0.624994572863414   1.0000000
N2   N   0.111224273048319   0.555610304166450   0.125006291546813   1.0000000
N2   N   0.777862205399403   0.055597769366369   0.625002772607035   1.0000000
N2   N   0.277869969377250   0.055609587712722   0.125016530896137   1.0000000
N2   N   0.444539790129578   0.555588592949341   0.125195436512273   1.0000000
N2   N   0.777888548005761   0.555610940669548   0.125041360082679   1.0000000
N2   N   0.611216649764368   0.055606297171824   0.125008590519320   1.0000000
N2   N   0.444539790129578   0.555588592949341   0.624804563487727   1.0000000
N2   N   0.944497258830405   0.055568813200754   0.124967955990913   1.0000000
N2   N   0.277900602385519   0.722271611783763   0.625002541917919   1.0000000
N2   N   0.111136260552546   0.222234796942937   0.625058389412325   1.0000000
N2   N   0.444539790129578   0.222284530513572   0.624804563487727   1.0000000
N2   N   0.611204957672818   0.722251673777841   0.624938263412837   1.0000000
N2   N   0.944568771297636   0.722271718632183   0.624994572863414   1.0000000
N2   N   0.777871741711480   0.222289012490349   0.625007519607378   1.0000000
N2   N   0.111246319440463   0.722289826386895   0.124999578093956   1.0000000
N2   N   0.444556870058562   0.722269038712499   0.125024784721407   1.0000000
N2   N   0.277799877060189   0.222247295031577   0.125096763607118   1.0000000
N2   N   0.777875198456710   0.722250230886965   0.124964827619706   1.0000000
N2   N   0.611204957672818   0.222286617228306   0.125061736587163   1.0000000
N2   N   0.944497258830405   0.222261778962987   0.124967955990913   1.0000000
N2   N   0.111169159435849   0.388920495861304   0.625006544584089   1.0000000
N2   N   0.277900602385519   0.888962323935085   0.625002541917919   1.0000000
N2   N   0.611216649764368   0.888943685925872   0.624991409480680   1.0000000
N2   N   0.444455038397229   0.388894185865279   0.625000235135946   1.0000000
N2   N   0.944530024372096   0.888920651778436   0.625013225382024   1.0000000
N2   N   0.111224273048319   0.888947302215197   0.125006291546813   1.0000000
N2   N   0.777875198456710   0.388958300903073   0.625035172380294   1.0000000
N2   N   0.444567132389504   0.888950232861416   0.125007013715147   1.0000000
N2   N   0.277799877060189   0.388885915361939   0.125096763607118   1.0000000
N2   N   0.277869969377250   0.555593714997864   0.125016530896137   1.0000000
N2   N   0.611180081582506   0.388944325008357   0.125538657547764   1.0000000
N2   N   0.777871741711480   0.888916062554458   0.124992480392621   1.0000000
N2   N   0.944530024372096   0.388942705926989   0.124986774617976   1.0000000
N2   N   0.111224273048319   0.555610304166450   0.624993708453187   1.0000000
N2   N   0.277869969377250   0.055609587712722   0.624983469103863   1.0000000
N2   N   0.777888548005761   0.555610940669548   0.624958639917321   1.0000000
N2   N   0.611216649764368   0.055606297171824   0.624991409480680   1.0000000
N2   N   0.944497258830405   0.055568813200754   0.625032044009087   1.0000000
N2   N   0.051598501344414   0.108724319348197   0.375000000000000   1.0000000
N2   N   0.556015368381127   0.606164707116674   0.375000000000000   1.0000000
N2   N   0.388716591290283   0.114846651421602   0.375000000000000   1.0000000
N2   N   0.894089511526456   0.613711422429900   0.375000000000000   1.0000000
N2   N   0.720436939755778   0.110663390953859   0.375000000000000   1.0000000
N2   N   0.055450512687233   0.777723918578378   0.875000000000000   1.0000000
N2   N   0.388783560952911   0.777721227901899   0.875000000000000   1.0000000
N2   N   0.222115635825006   0.277724484579171   0.875000000000000   1.0000000
N2   N   0.722117003241935   0.777719071066449   0.875000000000000   1.0000000
N2   N   0.555448118008011   0.277727010220505   0.875000000000000   1.0000000
N2   N   0.888780428408424   0.277721985810147   0.875000000000000   1.0000000
N2   N   0.224110313807351   0.778721823570343   0.375000000000000   1.0000000
N2   N   0.051598501344414   0.276207515329552   0.375000000000000   1.0000000
N2   N   0.377066030207103   0.272912952694602   0.375000000000000   1.0000000
N2   N   0.554984497884409   0.775161019974379   0.375000000000000   1.0000000
N2   N   0.892217241248958   0.779997071586671   0.375000000000000   1.0000000
N2   N   0.721949411301503   0.278591081739160   0.375000000000000   1.0000000
N2   N   0.055446993551836   0.944396030342475   0.875000000000000   1.0000000
N2   N   0.388783560952911   0.944395666384349   0.875000000000000   1.0000000
N2   N   0.222104168685690   0.444383042489759   0.875000000000000   1.0000000
N2   N   0.555440554398941   0.444386943866135   0.875000000000000   1.0000000
N2   N   0.722110473922653   0.944390192844103   0.875000000000000   1.0000000
N2   N   0.888778557399497   0.444387744761910   0.875000000000000   1.0000000
N2   N   0.055309071904679   0.444398391238969   0.375000000000000   1.0000000
N2   N   0.223298434926365   0.945654140553390   0.375000000000000   1.0000000
N2   N   0.554903733046020   0.944118533189674   0.375000000000000   1.0000000
N2   N   0.377066030207103   0.437486410845837   0.375000000000000   1.0000000
N2   N   0.887133021506089   0.943189300014252   0.375000000000000   1.0000000
N2   N   0.731053399395889   0.447455114282908   0.375000000000000   1.0000000
N2   N   0.222112138737575   0.611053666793358   0.875000000000000   1.0000000
N2   N   0.055445656911261   0.111054755605815   0.875000000000000   1.0000000
N2   N   0.555448118008011   0.611054441120842   0.875000000000000   1.0000000
N2   N   0.388782008108888   0.111056397288805   0.875000000000000   1.0000000
N2   N   0.888784836444386   0.611059084888864   0.875000000000000   1.0000000
N2   N   0.058339662651824   0.612300169004390   0.375000000000000   1.0000000
N2   N   0.722110473922653   0.111053614411886   0.875000000000000   1.0000000
N2   N   0.218431770523620   0.108694430147049   0.375000000000000   1.0000000
N2   N   0.388716591290283   0.607203273202024   0.375000000000000   1.0000000
N2   N   0.731053399395890   0.616931618446317   0.375000000000000   1.0000000
N2   N   0.554984497884409   0.113156811243366   0.375000000000000   1.0000000
N2   N   0.388782008108888   0.611058944153426   0.875000000000000   1.0000000
N2   N   0.885983499634180   0.109658416483761   0.375000000000000   1.0000000
N2   N   0.222108774780803   0.777721054057069   0.875000000000000   1.0000000
N2   N   0.055445656911261   0.277724234638782   0.875000000000000   1.0000000
N2   N   0.388785979596612   0.277726796641610   0.875000000000000   1.0000000
N2   N   0.555440737517463   0.777717437419844   0.875000000000000   1.0000000
N2   N   0.888778557399497   0.777724145970923   0.875000000000000   1.0000000
N2   N   0.722117003241935   0.277731265508821   0.875000000000000   1.0000000
N2   N   0.058339662651824   0.779372826980770   0.375000000000000   1.0000000
N2   N   0.389585508902309   0.776874990047750   0.375000000000000   1.0000000
N2   N   0.214593335222304   0.273963334277820   0.375000000000000   1.0000000
N2   N   0.721949411301503   0.776691662895679   0.375000000000000   1.0000000
N2   N   0.556015368381127   0.283183994597788   0.375000000000000   1.0000000
N2   N   0.887133021506089   0.277277054825174   0.375000000000000   1.0000000
N2   N   0.055446993551836   0.444384296542690   0.875000000000000   1.0000000
N2   N   0.222112138737575   0.944391805277552   0.875000000000000   1.0000000
N2   N   0.555443511063517   0.944388422198424   0.875000000000000   1.0000000
N2   N   0.388785979596612   0.444392516288337   0.875000000000000   1.0000000
N2   N   0.888780428408424   0.944391775931613   0.875000000000000   1.0000000
N2   N   0.055309071904679   0.944244013999037   0.375000000000000   1.0000000
N2   N   0.722115475402024   0.444389356507761   0.875000000000000   1.0000000
N2   N   0.389585508902309   0.946043852187894   0.375000000000000   1.0000000
N2   N   0.218431770523620   0.443070673709907   0.375000000000000   1.0000000
N2   N   0.223298434926365   0.610977627706311   0.375000000000000   1.0000000
N2   N   0.720436939755778   0.943106882135255   0.375000000000000   1.0000000
N2   N   0.892217241248958   0.445553502995623   0.375000000000000   1.0000000
N2   N   0.055450512687233   0.611059927442189   0.875000000000000   1.0000000
N2   N   0.222104168685690   0.111054459529266   0.875000000000000   1.0000000
N2   N   0.722115475402024   0.611059452227599   0.875000000000000   1.0000000
N2   N   0.555440737517463   0.111056633430955   0.875000000000000   1.0000000
N2   N   0.888769390881926   0.111051362107635   0.875000000000000   1.0000000
B2   B   0.108170905259724   0.054138086332283   0.375000000000000   1.0000000
B2   B   0.621732075241689   0.560394991654171   0.375000000000000   1.0000000
B2   B   0.443978337707088   0.058012877307470   0.375000000000000   1.0000000
B2   B   0.947860991485764   0.556822168347503   0.375000000000000   1.0000000
B2   B   0.775185311258521   0.054259322295928   0.375000000000000   1.0000000
B2   B   0.110983654735560   0.722158494034444   0.875000000000000   1.0000000
B2   B   0.444306132414737   0.722150095191923   0.875000000000000   1.0000000
B2   B   0.277631776859565   0.222198724924570   0.875000000000000   1.0000000
B2   B   0.777640854037537   0.722148572370646   0.875000000000000   1.0000000
B2   B   0.610954404921370   0.222197326202895   0.875000000000000   1.0000000
B2   B   0.944286261389487   0.222186219860018   0.875000000000000   1.0000000
B2   B   0.278753094170860   0.722084185691839   0.375000000000000   1.0000000
B2   B   0.105154290512404   0.219243811922866   0.375000000000000   1.0000000
B2   B   0.443419470872743   0.227515810943391   0.375000000000000   1.0000000
B2   B   0.610288504708978   0.718731905934591   0.375000000000000   1.0000000
B2   B   0.947860991485764   0.724372156471597   0.375000000000000   1.0000000
B2   B   0.776141571095256   0.221814415525145   0.375000000000000   1.0000000
B2   B   0.111041820430494   0.888864444003762   0.875000000000000   1.0000000
B2   B   0.444370472071862   0.888851902702595   0.875000000000000   1.0000000
B2   B   0.277631776859565   0.388766385268323   0.875000000000000   1.0000000
B2   B   0.610945909337832   0.388766177041891   0.875000000000000   1.0000000
B2   B   0.777704690459743   0.888848266134908   0.875000000000000   1.0000000
B2   B   0.944291524257293   0.388760638955925   0.875000000000000   1.0000000
B2   B   0.108170905259724   0.387366152260770   0.375000000000000   1.0000000
B2   B   0.278753094170860   0.890002241812351   0.375000000000000   1.0000000
B2   B   0.609531207734185   0.887103556694902   0.375000000000000   1.0000000
B2   B   0.944955211896208   0.889862002893913   0.375000000000000   1.0000000
B2   B   0.782265295817540   0.389685927889568   0.375000000000000   1.0000000
B2   B   0.277624245275012   0.555516890435327   0.875000000000000   1.0000000
B2   B   0.110973930283394   0.055497221420784   0.875000000000000   1.0000000
B2   B   0.610945909337832   0.555513065629269   0.875000000000000   1.0000000
B2   B   0.444306132414737   0.055489370556149   0.875000000000000   1.0000000
B2   B   0.944299906527082   0.555527240087209   0.875000000000000   1.0000000
B2   B   0.112439866089919   0.555663647662031   0.375000000000000   1.0000000
B2   B   0.777640590111920   0.055486961722628   0.875000000000000   1.0000000
B2   B   0.277299983776294   0.056604449705768   0.375000000000000   1.0000000
B2   B   0.443419470872743   0.549236993262688   0.375000000000000   1.0000000
B2   B   0.784291548380468   0.558812440856903   0.375000000000000   1.0000000
B2   B   0.609531207734185   0.055760984372612   0.375000000000000   1.0000000
B2   B   0.444366639547913   0.555509847487332   0.875000000000000   1.0000000
B2   B   0.941118651143392   0.053720122511637   0.375000000000000   1.0000000
B2   B   0.277625983910515   0.722095163625568   0.875000000000000   1.0000000
B2   B   0.111039865256620   0.222186599294974   0.875000000000000   1.0000000
B2   B   0.444366639547913   0.222190125393916   0.875000000000000   1.0000000
B2   B   0.610954404921370   0.722090412051804   0.875000000000000   1.0000000
B2   B   0.944299906527082   0.722105999773208   0.875000000000000   1.0000000
B2   B   0.777704690459743   0.222189757658165   0.875000000000000   1.0000000
B2   B   0.113390525245960   0.723361929289644   0.375000000000000   1.0000000
B2   B   0.443978337707088   0.719298793732953   0.375000000000000   1.0000000
B2   B   0.268912572165520   0.218196831145882   0.375000000000000   1.0000000
B2   B   0.782265295817540   0.725912701261299   0.375000000000000   1.0000000
B2   B   0.610288504708978   0.224889932107715   0.375000000000000   1.0000000
B2   B   0.941118651143392   0.220731861965090   0.375000000000000   1.0000000
B2   B   0.110973930283394   0.388810042195938   0.875000000000000   1.0000000
B2   B   0.277625983910515   0.888864153618275   0.875000000000000   1.0000000
B2   B   0.610957275931420   0.888856484919335   0.875000000000000   1.0000000
B2   B   0.444302636815329   0.388817985074329   0.875000000000000   1.0000000
B2   B   0.944291524257293   0.888864218634697   0.875000000000000   1.0000000
B2   B   0.112439866089919   0.890109551761217   0.375000000000000   1.0000000
B2   B   0.777640854037537   0.388825615000221   0.875000000000000   1.0000000
B2   B   0.444229871336187   0.888781602334758   0.375000000000000   1.0000000
B2   B   0.268912572165520   0.384049074352966   0.375000000000000   1.0000000
B2   B   0.277299983776294   0.554028867403862   0.375000000000000   1.0000000
B2   B   0.621732075241689   0.394670416920846   0.375000000000000   1.0000000
B2   B   0.776141571095256   0.887660488903440   0.375000000000000   1.0000000
B2   B   0.944955211896208   0.388426542335624   0.375000000000000   1.0000000
B2   B   0.111041820430494   0.555510709760061   0.875000000000000   1.0000000
B2   B   0.277624245275012   0.055440688173020   0.875000000000000   1.0000000
B2   B   0.777704746080666   0.555519039706999   0.875000000000000   1.0000000
B2   B   0.610957275931420   0.055434124345413   0.875000000000000   1.0000000
B2   B   0.944286261389487   0.055433374862805   0.875000000000000   1.0000000
B2   B   0.055654452485843   0.111111651027795   0.124971952824288   1.0000000
B2   B   0.555636297438018   0.611136597579668   0.125263805711315   1.0000000
B2   B   0.389036867810652   0.111159176606101   0.125083771052916   1.0000000
B2   B   0.889034121224367   0.611183727278856   0.124982946961533   1.0000000
B2   B   0.722365934531791   0.111137488159267   0.125012072027370   1.0000000
B2   B   0.055724131192819   0.777810825878333   0.625003371653072   1.0000000
B2   B   0.389059567039848   0.777810088787149   0.624993985446058   1.0000000
B2   B   0.222301530281085   0.277817431807210   0.624970576634257   1.0000000
B2   B   0.722347447218088   0.777783421844420   0.624995196119631   1.0000000
B2   B   0.555636297438018   0.277833033191685   0.624736194288685   1.0000000
B2   B   0.888998996577424   0.277845754541693   0.625012036758570   1.0000000
B2   B   0.222317733350144   0.777825533341740   0.124993406620827   1.0000000
B2   B   0.055654452485843   0.277876134791385   0.124971952824288   1.0000000
B2   B   0.389005635574583   0.277946041331990   0.125318937339754   1.0000000
B2   B   0.555625569278397   0.777813836917444   0.125017579823935   1.0000000
B2   B   0.888950194038483   0.777793873255325   0.124976716554666   1.0000000
B2   B   0.722347447218088   0.277897358707005   0.125004803880369   1.0000000
B2   B   0.055689084481759   0.944556362788281   0.625011003279820   1.0000000
B2   B   0.389059567039848   0.944582811586034   0.624993985446058   1.0000000
B2   B   0.222267883432969   0.444450574356200   0.624975154429361   1.0000000
B2   B   0.555439103963464   0.444386218648396   0.624430609896621   1.0000000
B2   B   0.722365934531791   0.944561779705859   0.624987927972630   1.0000000
B2   B   0.888950194038483   0.444489654116493   0.625023283445334   1.0000000
B2   B   0.055689084481759   0.444466055026807   0.124988996720181   1.0000000
B2   B   0.222368816427051   0.944530487448885   0.124996553198377   1.0000000
B2   B   0.555707854661849   0.944520593997589   0.125021465037581   1.0000000
B2   B   0.389005635574583   0.444392927575929   0.125318937339754   1.0000000
B2   B   0.888998996577424   0.944486575369066   0.124987963241430   1.0000000
B2   B   0.722328164394770   0.444453125165557   0.125111969866019   1.0000000
B2   B   0.222368816427051   0.611171662311502   0.625003446801623   1.0000000
B2   B   0.055654452485843   0.111111651027795   0.625028047175712   1.0000000
B2   B   0.555636297438018   0.611136597579668   0.624736194288685   1.0000000
B2   B   0.389036867810652   0.111159176606101   0.624916228947083   1.0000000
B2   B   0.889034121224367   0.611183727278856   0.625017053038467   1.0000000
B2   B   0.055724131192819   0.611246638647823   0.124996628346928   1.0000000
B2   B   0.722365934531791   0.111137488159267   0.624987927972630   1.0000000
B2   B   0.222267883432969   0.111150642410105   0.125024845570639   1.0000000
B2   B   0.389036867810652   0.611211024537894   0.125083771052916   1.0000000
B2   B   0.722328164394770   0.611208372562550   0.125111969866019   1.0000000
B2   B   0.555625569278397   0.111145065694290   0.125017579823935   1.0000000
B2   B   0.389036867810652   0.611211024537894   0.624916228947083   1.0000000
B2   B   0.888927861353264   0.111130597343303   0.124989301920668   1.0000000
B2   B   0.222317733350144   0.777825533341740   0.625006593379173   1.0000000
B2   B   0.055654452485843   0.277876134791385   0.625028047175712   1.0000000
B2   B   0.389005635574583   0.277946041331990   0.624681062660246   1.0000000
B2   B   0.555625569278397   0.777813836917444   0.624982420176066   1.0000000
B2   B   0.888950194038483   0.777793873255325   0.625023283445334   1.0000000
B2   B   0.722347447218088   0.277897358707005   0.624995196119631   1.0000000
B2   B   0.055724131192819   0.777810825878333   0.124996628346928   1.0000000
B2   B   0.389059567039848   0.777810088787149   0.125006014553942   1.0000000
B2   B   0.222301530281085   0.277817431807210   0.125029423365742   1.0000000
B2   B   0.722347447218088   0.777783421844420   0.125004803880369   1.0000000
B2   B   0.555636297438018   0.277833033191685   0.125263805711315   1.0000000
B2   B   0.888998996577424   0.277845754541693   0.124987963241430   1.0000000
B2   B   0.055689084481759   0.444466055026807   0.625011003279820   1.0000000
B2   B   0.222368816427051   0.944530487448885   0.625003446801623   1.0000000
B2   B   0.555707854661849   0.944520593997589   0.624978534962418   1.0000000
B2   B   0.389005635574583   0.444392927575929   0.624681062660246   1.0000000
B2   B   0.888998996577424   0.944486575369066   0.625012036758570   1.0000000
B2   B   0.055689084481759   0.944556362788281   0.124988996720181   1.0000000
B2   B   0.722328164394770   0.444453125165557   0.624888030133982   1.0000000
B2   B   0.389059567039848   0.944582811586034   0.125006014553942   1.0000000
B2   B   0.222267883432969   0.444450574356200   0.125024845570639   1.0000000
B2   B   0.222368816427051   0.611171662311502   0.124996553198377   1.0000000
B2   B   0.555439103963464   0.444386218648396   0.125569390103378   1.0000000
B2   B   0.722365934531791   0.944561779705859   0.125012072027370   1.0000000
B2   B   0.888950194038483   0.444489654116493   0.124976716554666   1.0000000
B2   B   0.055724131192819   0.611246638647823   0.625003371653072   1.0000000
B2   B   0.222267883432969   0.111150642410105   0.624975154429361   1.0000000
B2   B   0.722328164394770   0.611208372562550   0.624888030133982   1.0000000
B2   B   0.555625569278397   0.111145065694290   0.624982420176066   1.0000000
B2   B   0.888927861353264   0.111130597343303   0.625010698079333   1.0000000


