data_1
_audit_creation_method   'vasp2cif'
_cell_length_a    17.52789999999977
_cell_length_b    17.52789999999977
_cell_length_c    15.0
_cell_angle_alpha    90.0
_cell_angle_beta    90.0
_cell_angle_gamma    119.99999999999916

_symmetry_space_group_name_H-M    'P 1'
loop_
_atom_site_label
_atom_site_type_symbol
_atom_site_fract_x
_atom_site_fract_y
_atom_site_fract_z
_atom_site_occupancy
B2   B   0.902542519260352   0.949770168836208   0.106620994179540   1.0000000
B2   B   0.903503613031464   0.092906187665780   0.109326754218219   1.0000000
B2   B   0.904209504346489   0.235995682631025   0.109254473766519   1.0000000
B2   B   0.904618867353453   0.379111566364519   0.107303538253405   1.0000000
B2   B   0.905971139035428   0.522633600081436   0.103977233176335   1.0000000
B2   B   0.906196085284563   0.666148805211129   0.101529435742312   1.0000000
B2   B   0.904569067677632   0.808932778849268   0.101034183267571   1.0000000
B2   B   0.047428488069950   0.952654834835632   0.106476537791423   1.0000000
B2   B   0.047730191921937   0.095501130795387   0.107223092663368   1.0000000
B2   B   0.047718350333032   0.237536126490254   0.107877714155526   1.0000000
B2   B   0.047441413558469   0.379760062710989   0.107665524583357   1.0000000
B2   B   0.047402805392232   0.522839553273858   0.107812584443676   1.0000000
B2   B   0.047568219784731   0.666450149135309   0.107763253549043   1.0000000
B2   B   0.047617194022377   0.809810802635899   0.106490007526281   1.0000000
B2   B   0.190565754690608   0.953395168147163   0.108530273561470   1.0000000
B2   B   0.191010360565847   0.096696135142088   0.105924320499297   1.0000000
B2   B   0.193361287810038   0.241692172360991   0.105355191274713   1.0000000
B2   B   0.191479534351543   0.381818699690292   0.105212401090989   1.0000000
B2   B   0.189552564741530   0.523503574212183   0.105703807198234   1.0000000
B2   B   0.188739063100137   0.666676803388016   0.108986049928984   1.0000000
B2   B   0.189949692661281   0.810074612103974   0.110368790275837   1.0000000
B2   B   0.333133015637013   0.953071416109840   0.109787600285148   1.0000000
B2   B   0.333940404036671   0.096658083212805   0.108320061535086   1.0000000
B2   B   0.334441711073356   0.240356600547254   0.107081007345654   1.0000000
B2   B   0.341519340880633   0.391083735590435   0.109305944575903   1.0000000
B2   B   0.332943554665164   0.525490997977866   0.105701430555689   1.0000000
B2   B   0.329466616643247   0.667324908553651   0.107478688577078   1.0000000
B2   B   0.332131667909928   0.809957310437171   0.110886525739702   1.0000000
B2   B   0.475490269002608   0.951194019659646   0.109758877022373   1.0000000
B2   B   0.476304809652718   0.095045113902148   0.108514567536519   1.0000000
B2   B   0.477171116186319   0.238899437960488   0.116418340417987   1.0000000
B2   B   0.470295707656849   0.374943471235317   0.148631262186202   1.0000000
B2   B   0.492610787416946   0.581758055277030   0.134922008755380   1.0000000
B2   B   0.467217606483587   0.660925128460093   0.124805610608920   1.0000000
B2   B   0.473985394762736   0.806955756196052   0.114385578506920   1.0000000
B2   B   0.617365482165650   0.948488176572551   0.111109598947685   1.0000000
B2   B   0.618536472532066   0.093091118314511   0.108516057622206   1.0000000
B2   B   0.619234214919205   0.237012125585972   0.110622320482791   1.0000000
B2   B   0.620186634704943   0.380699056250374   0.126726930060744   1.0000000
B2   B   0.638725706702592   0.532039719589565   0.150446454845842   1.0000000
B2   B   0.611740309202846   0.650870757736003   0.112130515253330   1.0000000
B2   B   0.614336477244185   0.801850389426078   0.114374804936949   1.0000000
B2   B   0.759085486908386   0.947830631631413   0.109725180651959   1.0000000
B2   B   0.760734157843271   0.092181755252663   0.109794227717913   1.0000000
B2   B   0.761564964629663   0.235838745904028   0.108408877771458   1.0000000
B2   B   0.762166619753284   0.379233139076894   0.107752603753630   1.0000000
B2   B   0.765255656727741   0.522602788260943   0.107189756333677   1.0000000
B2   B   0.764838833230423   0.665886459545990   0.099735647927336   1.0000000
B2   B   0.756779857055974   0.802922072974159   0.104638532225159   1.0000000
N2   N   0.952057628351863   0.904165483860614   0.104820563622459   1.0000000
N2   N   0.951500146384665   0.045905974126431   0.108163259202481   1.0000000
N2   N   0.951836901416363   0.188552702646592   0.109441795187898   1.0000000
N2   N   0.951941141682864   0.331368491357757   0.108556539064541   1.0000000
N2   N   0.952575904231516   0.474495908520168   0.106570408038157   1.0000000
N2   N   0.953182575389229   0.618158673476621   0.104299852063278   1.0000000
N2   N   0.952862392711048   0.761738114258850   0.102203492696887   1.0000000
N2   N   0.095262728934081   0.905269228840468   0.107610800994512   1.0000000
N2   N   0.095410767388092   0.048048231360759   0.106774557239781   1.0000000
N2   N   0.096499062619393   0.191334244500122   0.106899175684655   1.0000000
N2   N   0.095303387234492   0.332638083099954   0.106958291810282   1.0000000
N2   N   0.094340260893116   0.475024826443791   0.107402479601380   1.0000000
N2   N   0.094068220397936   0.618352852816201   0.109131626501979   1.0000000
N2   N   0.094925654310821   0.762021357979139   0.109153579102637   1.0000000
N2   N   0.237818892982710   0.905487502352918   0.110255135096573   1.0000000
N2   N   0.238410210680101   0.048710832486515   0.107290290940843   1.0000000
N2   N   0.238961856381994   0.191960290098040   0.104066756660424   1.0000000
N2   N   0.242371309158795   0.337793366663787   0.105255472382067   1.0000000
N2   N   0.237016646845630   0.476320356264714   0.103986484736215   1.0000000
N2   N   0.234821178635823   0.618840462741110   0.106334811993602   1.0000000
N2   N   0.236825722445559   0.762210135465893   0.110616475036418   1.0000000
N2   N   0.380226436699995   0.905118516859822   0.110433413460360   1.0000000
N2   N   0.381005024447516   0.048211154606070   0.108713329300761   1.0000000
N2   N   0.381724288010861   0.191693278582608   0.109951993692194   1.0000000
N2   N   0.382273656682427   0.335167314577043   0.113605647184898   1.0000000
N2   N   0.389134287961212   0.487862199399000   0.108662927131292   1.0000000
N2   N   0.374718953263304   0.620086938563104   0.107394906790521   1.0000000
N2   N   0.378726452126050   0.762284011821178   0.111360465851284   1.0000000
N2   N   0.522294180249146   0.902702124628824   0.111343106741658   1.0000000
N2   N   0.523381378208521   0.046561344385869   0.108154849445852   1.0000000
N2   N   0.524122719199560   0.190144157520664   0.110204320681641   1.0000000
N2   N   0.524036838902962   0.332735270760793   0.132692674490263   1.0000000
N2   N   0.519408701296003   0.757495936486832   0.120586913885701   1.0000000
N2   N   0.663699361976028   0.899211625022611   0.111614780654351   1.0000000
N2   N   0.665507270605018   0.044528714337788   0.109561892987996   1.0000000
N2   N   0.666393080452045   0.188562702324989   0.108253848676343   1.0000000
N2   N   0.666896054743695   0.332151003196863   0.113340871656011   1.0000000
N2   N   0.673104001122708   0.475797221975664   0.126233851005801   1.0000000
N2   N   0.672542098684624   0.617299962441372   0.109839024266605   1.0000000
N2   N   0.659735140325917   0.751283272179123   0.109079757478358   1.0000000
N2   N   0.806369024887848   0.900039491660802   0.107308579344899   1.0000000
N2   N   0.807857065357337   0.044109907331559   0.109988920361099   1.0000000
N2   N   0.808809886276558   0.187829507430282   0.109352691990492   1.0000000
N2   N   0.809369004130649   0.331121515719604   0.107229112072258   1.0000000
N2   N   0.811517755354951   0.474296108502461   0.103031207582551   1.0000000
N2   N   0.812423405724182   0.617987197797183   0.100220621674610   1.0000000
N2   N   0.809795819508547   0.760780415636861   0.097676059165048   1.0000000
Ga2   Ga   0.522830299223025   0.499457977272411   0.209711365122572   1.0000000


