data_1
_audit_creation_method   'vasp2cif'
_cell_length_a    17.52789999999977
_cell_length_b    17.52789999999977
_cell_length_c    15.0
_cell_angle_alpha    90.0
_cell_angle_beta    90.0
_cell_angle_gamma    119.99999999999916

_symmetry_space_group_name_H-M    'P 1'
loop_
_atom_site_label
_atom_site_type_symbol
_atom_site_fract_x
_atom_site_fract_y
_atom_site_fract_z
_atom_site_occupancy
B2   B   0.904702539600878   0.952404784591682   0.111030030556797   1.0000000
B2   B   0.904717894343626   0.095284126852370   0.111038954430500   1.0000000
B2   B   0.904717894343626   0.238005073817255   0.111038954430500   1.0000000
B2   B   0.904702539600878   0.380870772891198   0.111030030556797   1.0000000
B2   B   0.904624485472780   0.523752845141073   0.111036763266220   1.0000000
B2   B   0.904739360818413   0.666656189350705   0.111040748942415   1.0000000
B2   B   0.904624485472780   0.809444658214711   0.111036763266220   1.0000000
B2   B   0.047600252007220   0.952401769188784   0.111028361642962   1.0000000
B2   B   0.047597236604322   0.095299481595119   0.111030030556797   1.0000000
B2   B   0.047512731878339   0.238042874880170   0.111039066128566   1.0000000
B2   B   0.047597236604322   0.380870772891198   0.111030030556797   1.0000000
B2   B   0.047600252007220   0.523773212257435   0.111028361642962   1.0000000
B2   B   0.047642991125760   0.666672709613265   0.111034024075380   1.0000000
B2   B   0.047642991125760   0.809545010951494   0.111034024075380   1.0000000
B2   B   0.190457010244509   0.952359030070243   0.111034024075380   1.0000000
B2   B   0.190557362981293   0.095377535723217   0.111036763266220   1.0000000
B2   B   0.190292704679258   0.238212115791952   0.111022967899383   1.0000000
B2   B   0.190292704679258   0.380653606769307   0.111022967899383   1.0000000
B2   B   0.190557362981293   0.523752845141073   0.111036763266220   1.0000000
B2   B   0.190457010244509   0.666672709613265   0.111034024075380   1.0000000
B2   B   0.190476437651000   0.809525583545003   0.111026968414581   1.0000000
B2   B   0.333329311583733   0.952359030070243   0.111034024075380   1.0000000
B2   B   0.333345831846294   0.095262660377584   0.111040748942415   1.0000000
B2   B   0.333308201920818   0.238073837186925   0.111038781484373   1.0000000
B2   B   0.332681001265685   0.380627009573342   0.111004106710302   1.0000000
B2   B   0.333308201920818   0.523807382615895   0.111038781484373   1.0000000
B2   B   0.333345831846294   0.666656189350705   0.111040748942415   1.0000000
B2   B   0.333329311583733   0.809545010951494   0.111034024075380   1.0000000
B2   B   0.476228808939563   0.952401769188784   0.111028361642962   1.0000000
B2   B   0.476249176055926   0.095377535723217   0.111036763266220   1.0000000
B2   B   0.476194638581104   0.238073837186925   0.111038781484373   1.0000000
B2   B   0.474559563186121   0.377690123057245   0.111085116061721   1.0000000
B2   B   0.474559563186121   0.525442458010878   0.111085116061721   1.0000000
B2   B   0.476194638581104   0.666693819276181   0.111038781484373   1.0000000
B2   B   0.476249176055926   0.809444658214711   0.111036763266220   1.0000000
B2   B   0.619131248304806   0.952404784591682   0.111030030556797   1.0000000
B2   B   0.619131248304806   0.095299481595119   0.111030030556797   1.0000000
B2   B   0.619348414426696   0.238212115791952   0.111022967899383   1.0000000
B2   B   0.619375011622661   0.380627009573342   0.111004106710302   1.0000000
B2   B   0.622311898138759   0.525442458010878   0.111085116061721   1.0000000
B2   B   0.619375011622661   0.667321019931313   0.111004106710302   1.0000000
B2   B   0.619348414426696   0.809709316516746   0.111022967899383   1.0000000
B2   B   0.761959146315833   0.952489289317664   0.111039066128566   1.0000000
B2   B   0.761996947378748   0.095284126852370   0.111038954430500   1.0000000
B2   B   0.761959146315833   0.238042874880170   0.111039066128566   1.0000000
B2   B   0.761789905404051   0.380653606769307   0.111022967899383   1.0000000
B2   B   0.761928184009079   0.523807382615895   0.111038781484373   1.0000000
B2   B   0.761928184009079   0.666693819276181   0.111038781484373   1.0000000
B2   B   0.761789905404051   0.809709316516746   0.111022967899383   1.0000000
N2   N   0.952334878818778   0.904687330034675   0.111010012091258   1.0000000
N2   N   0.952385087962151   0.047616313955854   0.111016294430084   1.0000000
N2   N   0.952363067259763   0.190466331006382   0.111019795249322   1.0000000
N2   N   0.952385087962151   0.333338368759297   0.111016294430084   1.0000000
N2   N   0.952334878818778   0.476218855093099   0.111010012091258   1.0000000
N2   N   0.952335536238599   0.619053750599770   0.111010428843457   1.0000000
N2   N   0.952335536238599   0.761853091948826   0.111010428843457   1.0000000
N2   N   0.095243784953899   0.904757616964100   0.111012799111940   1.0000000
N2   N   0.095314071883323   0.047666523099227   0.111010012091258   1.0000000
N2   N   0.095171360844538   0.190455990299973   0.111008882770298   1.0000000
N2   N   0.095171360844538   0.333286676853568   0.111008882770298   1.0000000
N2   N   0.095314071883323   0.476218855093099   0.111010012091258   1.0000000
N2   N   0.095243784953899   0.619059185855800   0.111012799111940   1.0000000
N2   N   0.095234554233090   0.761903786049549   0.111010550061515   1.0000000
N2   N   0.238097615868457   0.904766847684908   0.111010550061515   1.0000000
N2   N   0.238148309969180   0.047665865679407   0.111010428843457   1.0000000
N2   N   0.238312639865814   0.190681814925013   0.111002951830923   1.0000000
N2   N   0.237838486826424   0.333204896567710   0.110998511247178   1.0000000
N2   N   0.238312639865814   0.476202131249797   0.111002951830923   1.0000000
N2   N   0.238148309969180   0.619053750599770   0.111010428843457   1.0000000
N2   N   0.238097615868457   0.761903786049549   0.111010550061515   1.0000000
N2   N   0.380942216062199   0.904757616964100   0.111012799111940   1.0000000
N2   N   0.380947651318228   0.047665865679407   0.111010428843457   1.0000000
N2   N   0.381054288165055   0.190678480722109   0.111000087213041   1.0000000
N2   N   0.381424172286409   0.334005368313436   0.110985452961434   1.0000000
N2   N   0.381424172286409   0.475990110281970   0.110985452961434   1.0000000
N2   N   0.381054288165055   0.618947113752943   0.111000087213041   1.0000000
N2   N   0.380947651318228   0.761853091948826   0.111010428843457   1.0000000
N2   N   0.523782546823898   0.904687330034675   0.111010012091258   1.0000000
N2   N   0.523782546823898   0.047666523099227   0.111010012091258   1.0000000
N2   N   0.523799270667200   0.190681814925013   0.111002951830923   1.0000000
N2   N   0.524011291635027   0.334005368313436   0.110985452961434   1.0000000
N2   N   0.524011291635027   0.618577229631589   0.110985452961434   1.0000000
N2   N   0.523799270667200   0.761688762052192   0.111002951830923   1.0000000
N2   N   0.666714725063428   0.904830041073461   0.111008882770298   1.0000000
N2   N   0.666663033157700   0.047616313955854   0.111016294430084   1.0000000
N2   N   0.666714725063428   0.190455990299973   0.111008882770298   1.0000000
N2   N   0.666796505349287   0.333204896567710   0.110998511247178   1.0000000
N2   N   0.665996033603561   0.475990110281970   0.110985452961434   1.0000000
N2   N   0.665996033603561   0.618577229631589   0.110985452961434   1.0000000
N2   N   0.666796505349287   0.762162915091582   0.110998511247178   1.0000000
N2   N   0.809545411618026   0.904830041073461   0.111008882770298   1.0000000
N2   N   0.809535070911617   0.047638334658242   0.111019795249322   1.0000000
N2   N   0.809535070911617   0.190466331006382   0.111019795249322   1.0000000
N2   N   0.809545411618026   0.333286676853568   0.111008882770298   1.0000000
N2   N   0.809319586992986   0.476202131249797   0.111002951830923   1.0000000
N2   N   0.809322921195889   0.618947113752943   0.111000087213041   1.0000000
N2   N   0.809319586992986   0.761688762052192   0.111002951830923   1.0000000
O2   O   0.523810499174999   0.476190902741997   0.110968083219634   1.0000000


