data_1
_audit_creation_method   'vasp2cif'
_cell_length_a    14.93631414619966
_cell_length_b    14.936314146199727
_cell_length_c    13.341276283792837
_cell_angle_alpha    90.0
_cell_angle_beta    90.0
_cell_angle_gamma    119.99999999999984

_symmetry_space_group_name_H-M    'P 1'
loop_
_atom_site_label
_atom_site_type_symbol
_atom_site_fract_x
_atom_site_fract_y
_atom_site_fract_z
_atom_site_occupancy
C2   C   0.439883531739078   0.386608432536203   0.375000000000000   1.0000000
C2   C   0.550290674925813   0.441812004129571   0.375000000000000   1.0000000
N2   N   0.111118029520788   0.055550616302092   0.124989185910551   1.0000000
N2   N   0.611111119723991   0.555553380605110   0.125150578731038   1.0000000
N2   N   0.444432914314241   0.055555980336411   0.125008088710185   1.0000000
N2   N   0.944448186296350   0.555562465112069   0.124961463476611   1.0000000
N2   N   0.777780039228036   0.055556686280686   0.124939542387151   1.0000000
N2   N   0.111107556579103   0.722220444956216   0.625061821993855   1.0000000
N2   N   0.444432914314241   0.722210267311166   0.624991911289815   1.0000000
N2   N   0.277792513575489   0.222228202486573   0.624764963109260   1.0000000
N2   N   0.777786460378920   0.722217117501236   0.625017163597689   1.0000000
N2   N   0.611102768068091   0.222227381594201   0.624990020592549   1.0000000
N2   N   0.944458946741423   0.222236466747701   0.625050459091815   1.0000000
N2   N   0.277770424772854   0.722219949161581   0.124950203137186   1.0000000
N2   N   0.111126617461453   0.222229975397391   0.125035423733240   1.0000000
N2   N   0.444441629701466   0.222245136688844   0.125299648669287   1.0000000
N2   N   0.611102768068091   0.722208719807218   0.125009979407451   1.0000000
N2   N   0.944448186296350   0.722219054517617   0.124961463476611   1.0000000
N2   N   0.777781022150462   0.222233167477648   0.124951590598797   1.0000000
N2   N   0.111111079185425   0.888879282493176   0.625042602191853   1.0000000
N2   N   0.444430314523404   0.888881823928366   0.625051232758778   1.0000000
N2   N   0.277792513575489   0.388897644422245   0.624764963109260   1.0000000
N2   N   0.611111119723991   0.388891072452209   0.624849421268962   1.0000000
N2   N   0.777781022150462   0.888881188006143   0.625048409401203   1.0000000
N2   N   0.944452872872452   0.388901719743489   0.625056984414194   1.0000000
N2   N   0.111118029520788   0.388900746552024   0.124989185910551   1.0000000
N2   N   0.277770424772854   0.888883808944602   0.124950203137186   1.0000000
N2   N   0.611101884292413   0.888879202936089   0.124947003026055   1.0000000
N2   N   0.444439921583754   0.388886627458541   0.125254220597407   1.0000000
N2   N   0.944452872872452   0.888884486462292   0.124943015585806   1.0000000
N2   N   0.777786460378920   0.388902676211012   0.124982836402311   1.0000000
N2   N   0.277775887515594   0.555557290919721   0.624950480004125   1.0000000
N2   N   0.111118029520788   0.055550616302092   0.625010814089449   1.0000000
N2   N   0.611111119723991   0.555553380605110   0.624849421268962   1.0000000
N2   N   0.444432914314241   0.055555980336411   0.624991911289815   1.0000000
N2   N   0.944448186296350   0.555562465112069   0.625038536523388   1.0000000
N2   N   0.111111079185425   0.555565130025578   0.124957397808147   1.0000000
N2   N   0.777780039228036   0.055556686280686   0.625060457612849   1.0000000
N2   N   0.277775887515594   0.055551929929208   0.125049519995874   1.0000000
N2   N   0.444441629701466   0.555529826345957   0.125299648669287   1.0000000
N2   N   0.777772190809655   0.555552762071495   0.125076922745128   1.0000000
N2   N   0.611101884292413   0.055556014689652   0.124947003026055   1.0000000
N2   N   0.444441629701466   0.555529826345957   0.624700351330713   1.0000000
N2   N   0.944458946741423   0.055555813327058   0.124949540908185   1.0000000
N2   N   0.277770424772854   0.722219949161581   0.625049796862814   1.0000000
N2   N   0.111126617461453   0.222229975397391   0.624964576266760   1.0000000
N2   N   0.444441629701466   0.222245136688844   0.624700351330713   1.0000000
N2   N   0.611102768068091   0.722208719807218   0.624990020592549   1.0000000
N2   N   0.944448186296350   0.722219054517617   0.625038536523388   1.0000000
N2   N   0.777781022150462   0.222233167477648   0.625048409401203   1.0000000
N2   N   0.111107556579103   0.722220444956216   0.124938178006146   1.0000000
N2   N   0.444432914314241   0.722210267311166   0.125008088710185   1.0000000
N2   N   0.277792513575489   0.222228202486573   0.125235036890740   1.0000000
N2   N   0.777786460378920   0.722217117501236   0.124982836402311   1.0000000
N2   N   0.611102768068091   0.222227381594201   0.125009979407451   1.0000000
N2   N   0.944458946741423   0.222236466747701   0.124949540908185   1.0000000
N2   N   0.111118029520788   0.388900746552024   0.625010814089449   1.0000000
N2   N   0.277770424772854   0.888883808944602   0.625049796862814   1.0000000
N2   N   0.611101884292413   0.888879202936089   0.625052996973945   1.0000000
N2   N   0.444439921583754   0.388886627458541   0.624745779402593   1.0000000
N2   N   0.944452872872452   0.888884486462292   0.625056984414194   1.0000000
N2   N   0.111111079185425   0.888879282493176   0.124957397808147   1.0000000
N2   N   0.777786460378920   0.388902676211012   0.625017163597689   1.0000000
N2   N   0.444430314523404   0.888881823928366   0.124948767241222   1.0000000
N2   N   0.277792513575489   0.388897644422245   0.125235036890740   1.0000000
N2   N   0.277775887515594   0.555557290919721   0.125049519995874   1.0000000
N2   N   0.611111119723991   0.388891072452209   0.125150578731038   1.0000000
N2   N   0.777781022150462   0.888881188006143   0.124951590598797   1.0000000
N2   N   0.944452872872452   0.388901719743489   0.124943015585806   1.0000000
N2   N   0.111111079185425   0.555565130025578   0.625042602191853   1.0000000
N2   N   0.277775887515594   0.055551929929208   0.624950480004125   1.0000000
N2   N   0.777772190809655   0.555552762071495   0.624923077254872   1.0000000
N2   N   0.611101884292413   0.055556014689652   0.625052996973945   1.0000000
N2   N   0.944458946741423   0.055555813327058   0.625050459091815   1.0000000
N2   N   0.055438904489074   0.111058260534706   0.375000000000000   1.0000000
N2   N   0.555999712355386   0.613420085848049   0.375000000000000   1.0000000
N2   N   0.389196446333916   0.112822604462717   0.375000000000000   1.0000000
N2   N   0.888384599299128   0.610858966316235   0.375000000000000   1.0000000
N2   N   0.722294530549788   0.110965853155760   0.375000000000000   1.0000000
N2   N   0.055553269043760   0.777776695208910   0.875000000000000   1.0000000
N2   N   0.388892982975417   0.777780388270935   0.875000000000000   1.0000000
N2   N   0.222223262254982   0.277778297794159   0.875000000000000   1.0000000
N2   N   0.722221006659427   0.777777689225633   0.875000000000000   1.0000000
N2   N   0.555559299248244   0.277777143161501   0.875000000000000   1.0000000
N2   N   0.888887017576499   0.277776705079568   0.875000000000000   1.0000000
N2   N   0.222380332921446   0.777856833127391   0.375000000000000   1.0000000
N2   N   0.055438904489074   0.277713977287703   0.375000000000000   1.0000000
N2   N   0.389283536990751   0.281901862394551   0.375000000000000   1.0000000
N2   N   0.555496936633221   0.778493774285138   0.375000000000000   1.0000000
N2   N   0.889263580271101   0.778271629178263   0.375000000000000   1.0000000
N2   N   0.722534361648557   0.277370902993897   0.375000000000000   1.0000000
N2   N   0.055554691447869   0.944445737289004   0.875000000000000   1.0000000
N2   N   0.388892982975417   0.944445928037818   0.875000000000000   1.0000000
N2   N   0.222216893321236   0.444445249923782   0.875000000000000   1.0000000
N2   N   0.555553294247826   0.444443313790577   0.875000000000000   1.0000000
N2   N   0.722223490449633   0.944446895337554   0.875000000000000   1.0000000
N2   N   0.888894240643157   0.444443629774146   0.875000000000000   1.0000000
N2   N   0.055961267087812   0.444379746001592   0.375000000000000   1.0000000
N2   N   0.222573790949148   0.945074569616453   0.375000000000000   1.0000000
N2   N   0.555428394939640   0.944380864136484   0.375000000000000   1.0000000
N2   N   0.389283536990751   0.440715007929535   0.375000000000000   1.0000000
N2   N   0.889086013598681   0.944690205832613   0.375000000000000   1.0000000
N2   N   0.722234508968502   0.443621233324748   0.375000000000000   1.0000000
N2   N   0.222220902359541   0.611112511484526   0.875000000000000   1.0000000
N2   N   0.055549798465609   0.111109526908684   0.875000000000000   1.0000000
N2   N   0.555559299248244   0.611115489420078   0.875000000000000   1.0000000
N2   N   0.388892924199110   0.111115956722612   0.875000000000000   1.0000000
N2   N   0.888885502400845   0.611109417867094   0.875000000000000   1.0000000
N2   N   0.055631851614949   0.611066525533136   0.375000000000000   1.0000000
N2   N   0.722223490449633   0.111109928445414   0.875000000000000   1.0000000
N2   N   0.222774492851973   0.112069101666096   0.375000000000000   1.0000000
N2   N   0.389196446333916   0.609707175204542   0.375000000000000   1.0000000
N2   N   0.722234508968502   0.611946608977090   0.375000000000000   1.0000000
N2   N   0.555496936633221   0.110336495681418   0.375000000000000   1.0000000
N2   N   0.388892924199110   0.611110300809842   0.875000000000000   1.0000000
N2   N   0.888956613881089   0.111144973607216   0.375000000000000   1.0000000
N2   N   0.222224023622492   0.777778678477914   0.875000000000000   1.0000000
N2   N   0.055549798465609   0.277773604890260   0.875000000000000   1.0000000
N2   N   0.388888971333017   0.277775893563154   0.875000000000000   1.0000000
N2   N   0.555555995812903   0.777784879827966   0.875000000000000   1.0000000
N2   N   0.888894240643157   0.777783944202346   0.875000000000000   1.0000000
N2   N   0.722221006659427   0.277776650767129   0.875000000000000   1.0000000
N2   N   0.055631851614949   0.777898659415149   0.375000000000000   1.0000000
N2   N   0.388924676723474   0.777434307778065   0.375000000000000   1.0000000
N2   N   0.221354062499673   0.277343697916504   0.375000000000000   1.0000000
N2   N   0.722534361648557   0.778496791987996   0.375000000000000   1.0000000
N2   N   0.555999712355386   0.275912959840673   0.375000000000000   1.0000000
N2   N   0.889086013598681   0.277729141099404   0.375000000000000   1.0000000
N2   N   0.055554691447869   0.444442287492194   0.875000000000000   1.0000000
N2   N   0.222220902359541   0.944441724208350   0.875000000000000   1.0000000
N2   N   0.555555813788080   0.944444573560704   0.875000000000000   1.0000000
N2   N   0.388888971333017   0.444446411103199   0.875000000000000   1.0000000
N2   N   0.888887017576499   0.944443645830267   0.875000000000000   1.0000000
N2   N   0.055961267087812   0.944914854419549   0.375000000000000   1.0000000
N2   N   0.722224237606701   0.444443415963338   0.875000000000000   1.0000000
N2   N   0.388924676723474   0.944823702278744   0.375000000000000   1.0000000
N2   N   0.222774492851973   0.444038724519212   0.375000000000000   1.0000000
N2   N   0.222573790949148   0.610832554666030   0.375000000000000   1.0000000
N2   N   0.722294530549788   0.944662010727364   0.375000000000000   1.0000000
N2   N   0.889263580271101   0.444325284426173   0.375000000000000   1.0000000
N2   N   0.055553269043760   0.611109907168186   0.875000000000000   1.0000000
N2   N   0.222216893321236   0.111104976730790   0.875000000000000   1.0000000
N2   N   0.722224237606701   0.611114154976699   0.875000000000000   1.0000000
N2   N   0.555555995812903   0.111104449318273   0.875000000000000   1.0000000
N2   N   0.888889461520914   0.111111397427128   0.875000000000000   1.0000000
B2   B   0.110948714432803   0.055642597371419   0.375000000000000   1.0000000
B2   B   0.612262713754011   0.560186670356620   0.375000000000000   1.0000000
B2   B   0.444627163395054   0.055788890819408   0.375000000000000   1.0000000
B2   B   0.944501619439299   0.555468930407078   0.375000000000000   1.0000000
B2   B   0.777877616135131   0.055605474734233   0.375000000000000   1.0000000
B2   B   0.111304603418992   0.722318968376160   0.875000000000000   1.0000000
B2   B   0.444359458960409   0.722059896648144   0.875000000000000   1.0000000
B2   B   0.277658759125167   0.222291197540151   0.875000000000000   1.0000000
B2   B   0.777697708676538   0.722339679846709   0.875000000000000   1.0000000
B2   B   0.611322874120836   0.222304243277346   0.875000000000000   1.0000000
B2   B   0.944328280229843   0.222015452698307   0.875000000000000   1.0000000
B2   B   0.277842812534044   0.722183271108863   0.375000000000000   1.0000000
B2   B   0.109480294739132   0.221406814036231   0.375000000000000   1.0000000
B2   B   0.446009259212434   0.223013503304126   0.375000000000000   1.0000000
B2   B   0.611902637876829   0.724724948560803   0.375000000000000   1.0000000
B2   B   0.944501619439299   0.722366022365556   0.375000000000000   1.0000000
B2   B   0.778155208375106   0.221879381774305   0.375000000000000   1.0000000
B2   B   0.111005252585439   0.888976663593183   0.875000000000000   1.0000000
B2   B   0.444648222334258   0.888990777833794   0.875000000000000   1.0000000
B2   B   0.277658759125167   0.388700894918344   0.875000000000000   1.0000000
B2   B   0.611048493283579   0.388975543652847   0.875000000000000   1.0000000
B2   B   0.777686372184782   0.888709282847445   0.875000000000000   1.0000000
B2   B   0.944634363168062   0.388980973003873   0.875000000000000   1.0000000
B2   B   0.110948714432803   0.388639450394712   0.375000000000000   1.0000000
B2   B   0.277842812534044   0.888992874758509   0.375000000000000   1.0000000
B2   B   0.611288049966745   0.889530427796647   0.375000000000000   1.0000000
B2   B   0.944766383827321   0.889331258426845   0.375000000000000   1.0000000
B2   B   0.778537190391870   0.388435769987845   0.375000000000000   1.0000000
B2   B   0.277955498401184   0.555661840936928   0.875000000000000   1.0000000
B2   B   0.110987717025703   0.055338974935199   0.875000000000000   1.0000000
B2   B   0.611048493283579   0.555406282964060   0.875000000000000   1.0000000
B2   B   0.444359458960409   0.055632895645601   0.875000000000000   1.0000000
B2   B   0.944352241394946   0.555651520013051   0.875000000000000   1.0000000
B2   B   0.111205983629702   0.555490303013817   0.375000000000000   1.0000000
B2   B   0.777973491414213   0.055653412373774   0.875000000000000   1.0000000
B2   B   0.277774391338338   0.055793221575508   0.375000000000000   1.0000000
B2   B   0.446009259212434   0.556329089241644   0.375000000000000   1.0000000
B2   B   0.777556392082405   0.555444862707870   0.375000000000000   1.0000000
B2   B   0.611288049966745   0.055090955503426   0.375000000000000   1.0000000
B2   B   0.444357656563674   0.555680485312579   0.875000000000000   1.0000000
B2   B   0.944167454476183   0.055472173241094   0.375000000000000   1.0000000
B2   B   0.277679925889459   0.722328772903101   0.875000000000000   1.0000000
B2   B   0.111260262522059   0.222296797927694   0.875000000000000   1.0000000
B2   B   0.444357656563674   0.222010504584431   0.875000000000000   1.0000000
B2   B   0.611322874120836   0.722351964176818   0.875000000000000   1.0000000
B2   B   0.944352241394946   0.722034054715231   0.875000000000000   1.0000000
B2   B   0.777686372184782   0.222310422670666   0.875000000000000   1.0000000
B2   B   0.111181343691800   0.722257338512564   0.375000000000000   1.0000000
B2   B   0.444627163395054   0.722171605908981   0.375000000000000   1.0000000
B2   B   0.275661136341564   0.221918800164641   0.375000000000000   1.0000000
B2   B   0.778537190391870   0.723434753737354   0.375000000000000   1.0000000
B2   B   0.611902637876829   0.220511022649353   0.375000000000000   1.0000000
B2   B   0.944167454476183   0.222028614568424   0.375000000000000   1.0000000
B2   B   0.110987717025703   0.388982075423833   0.875000000000000   1.0000000
B2   B   0.277679925889459   0.888684486319687   0.875000000000000   1.0000000
B2   B   0.611021252000667   0.889002245797729   0.875000000000000   1.0000000
B2   B   0.444628757131076   0.388981045232202   0.875000000000000   1.0000000
B2   B   0.944634363168062   0.888986723497517   0.875000000000000   1.0000000
B2   B   0.111205983629702   0.889049013949213   0.375000000000000   1.0000000
B2   B   0.777697708676538   0.388691362163158   0.875000000000000   1.0000000
B2   B   0.444438530487378   0.888885931910353   0.375000000000000   1.0000000
B2   B   0.275661136341564   0.387075669510252   0.375000000000000   1.0000000
B2   B   0.277774391338338   0.555314503096166   0.375000000000000   1.0000000
B2   B   0.612262713754011   0.385409376730721   0.375000000000000   1.0000000
B2   B   0.778155208375106   0.889609159934129   0.375000000000000   1.0000000
B2   B   0.944766383827321   0.388768458733804   0.375000000000000   1.0000000
B2   B   0.111005252585439   0.555361922325584   0.875000000000000   1.0000000
B2   B   0.277955498401184   0.055626990797592   0.875000000000000   1.0000000
B2   B   0.777993590878113   0.555663462105725   0.875000000000000   1.0000000
B2   B   0.611021252000667   0.055352339536266   0.875000000000000   1.0000000
B2   B   0.944328280229843   0.055646160864872   0.875000000000000   1.0000000
B2   B   0.055484038283150   0.111037416290762   0.125052257850519   1.0000000
B2   B   0.555635853372753   0.611238858796872   0.125019809875806   1.0000000
B2   B   0.388838675002664   0.110964153780664   0.125008273025923   1.0000000
B2   B   0.888985829931732   0.611159581632538   0.125055131404360   1.0000000
B2   B   0.722233857050715   0.111105078421532   0.125101134790541   1.0000000
B2   B   0.055563155769303   0.777756954450498   0.624892561661731   1.0000000
B2   B   0.388850524806888   0.777805737494843   0.624914918887045   1.0000000
B2   B   0.222097924230251   0.277715628781794   0.625092700818670   1.0000000
B2   B   0.722288208326341   0.777839911374764   0.624983815382334   1.0000000
B2   B   0.555635853372753   0.277730327909216   0.624980190124194   1.0000000
B2   B   0.888894976150004   0.277796129035140   0.624903440621058   1.0000000
B2   B   0.222186557157989   0.777759945245662   0.125038045140536   1.0000000
B2   B   0.055484038283150   0.277779955325724   0.125052257850519   1.0000000
B2   B   0.388846081467219   0.277691018155003   0.124750777826095   1.0000000
B2   B   0.555566605796766   0.777844377529316   0.125065025448196   1.0000000
B2   B   0.888949064647501   0.777802337056574   0.125097052671639   1.0000000
B2   B   0.722288208326341   0.277781630284913   0.125016184617666   1.0000000
B2   B   0.055521398864319   0.944372507259907   0.624967812239667   1.0000000
B2   B   0.388850524806888   0.944378120645381   0.624914918887045   1.0000000
B2   B   0.222121607943644   0.444496086897095   0.624962101810676   1.0000000
B2   B   0.555670948044726   0.444502140689027   0.625224872372359   1.0000000
B2   B   0.722233857050715   0.944462111962519   0.624898865209459   1.0000000
B2   B   0.888949064647501   0.444480060924262   0.624902947328361   1.0000000
B2   B   0.055521398864319   0.444482224937740   0.125032187760333   1.0000000
B2   B   0.222164370915437   0.944333446350064   0.125079466940027   1.0000000
B2   B   0.555546018736081   0.944439676034705   0.125034170702738   1.0000000
B2   B   0.388846081467219   0.444488396645552   0.124750777826095   1.0000000
B2   B   0.888894976150004   0.944432180448200   0.125096559378942   1.0000000
B2   B   0.722372293657116   0.444494019452204   0.125076568914097   1.0000000
B2   B   0.222164370915437   0.611164257898709   0.624920533059973   1.0000000
B2   B   0.055484038283150   0.111037416290762   0.624947742149481   1.0000000
B2   B   0.555635853372753   0.611238858796872   0.624980190124194   1.0000000
B2   B   0.388838675002664   0.110964153780664   0.624991726974077   1.0000000
B2   B   0.888985829931732   0.611159581632538   0.624944868595640   1.0000000
B2   B   0.055563155769303   0.611139534652142   0.125107438338269   1.0000000
B2   B   0.722233857050715   0.111105078421532   0.624898865209459   1.0000000
B2   B   0.222121607943644   0.110958854379885   0.125037898189324   1.0000000
B2   B   0.388838675002664   0.611207854555343   0.125008273025923   1.0000000
B2   B   0.722372293657116   0.611211607538248   0.125076568914097   1.0000000
B2   B   0.555566605796766   0.111055561600786   0.125065025448196   1.0000000
B2   B   0.388838675002664   0.611207854555343   0.624991726974077   1.0000000
B2   B   0.888869938138427   0.111101635735885   0.125037338963641   1.0000000
B2   B   0.222186557157989   0.777759945245662   0.624961954859464   1.0000000
B2   B   0.055484038283150   0.277779955325724   0.624947742149481   1.0000000
B2   B   0.388846081467219   0.277691018155003   0.625249222173906   1.0000000
B2   B   0.555566605796766   0.777844377529316   0.624934974551804   1.0000000
B2   B   0.888949064647501   0.777802337056574   0.624902947328361   1.0000000
B2   B   0.722288208326341   0.277781630284913   0.624983815382334   1.0000000
B2   B   0.055563155769303   0.777756954450498   0.125107438338269   1.0000000
B2   B   0.388850524806888   0.777805737494843   0.125085081112955   1.0000000
B2   B   0.222097924230251   0.277715628781794   0.124907299181331   1.0000000
B2   B   0.722288208326341   0.777839911374764   0.125016184617666   1.0000000
B2   B   0.555635853372753   0.277730327909216   0.125019809875806   1.0000000
B2   B   0.888894976150004   0.277796129035140   0.125096559378942   1.0000000
B2   B   0.055521398864319   0.444482224937740   0.624967812239667   1.0000000
B2   B   0.222164370915437   0.944333446350064   0.624920533059973   1.0000000
B2   B   0.555546018736081   0.944439676034705   0.624965829297262   1.0000000
B2   B   0.388846081467219   0.444488396645552   0.625249222173906   1.0000000
B2   B   0.888894976150004   0.944432180448200   0.624903440621058   1.0000000
B2   B   0.055521398864319   0.944372507259907   0.125032187760333   1.0000000
B2   B   0.722372293657116   0.444494019452204   0.624923431085903   1.0000000
B2   B   0.388850524806888   0.944378120645381   0.125085081112955   1.0000000
B2   B   0.222121607943644   0.444496086897095   0.125037898189324   1.0000000
B2   B   0.222164370915437   0.611164257898709   0.125079466940027   1.0000000
B2   B   0.555670948044726   0.444502140689027   0.124775127627641   1.0000000
B2   B   0.722233857050715   0.944462111962519   0.125101134790541   1.0000000
B2   B   0.888949064647501   0.444480060924262   0.125097052671639   1.0000000
B2   B   0.055563155769303   0.611139534652142   0.624892561661731   1.0000000
B2   B   0.222121607943644   0.110958854379885   0.624962101810676   1.0000000
B2   B   0.722372293657116   0.611211607538248   0.624923431085903   1.0000000
B2   B   0.555566605796766   0.111055561600786   0.624934974551804   1.0000000
B2   B   0.888869938138427   0.111101635735885   0.624962661036359   1.0000000


