data_1
_audit_creation_method   'vasp2cif'
_cell_length_a    17.52789999999977
_cell_length_b    17.52789999999977
_cell_length_c    15.0
_cell_angle_alpha    90.0
_cell_angle_beta    90.0
_cell_angle_gamma    119.99999999999916

_symmetry_space_group_name_H-M    'P 1'
loop_
_atom_site_label
_atom_site_type_symbol
_atom_site_fract_x
_atom_site_fract_y
_atom_site_fract_z
_atom_site_occupancy
B2   B   0.910707449291616   0.955277266192403   0.110749502051442   1.0000000
B2   B   0.909248790050513   0.096093163768691   0.110857577739868   1.0000000
B2   B   0.908821036412213   0.237589891956496   0.110799188726148   1.0000000
B2   B   0.909034000918348   0.379805559748306   0.110730205509497   1.0000000
B2   B   0.908980455584341   0.522606192028753   0.110802359242799   1.0000000
B2   B   0.909431744653608   0.665603683587811   0.110811898752585   1.0000000
B2   B   0.905095807178334   0.807577803406113   0.110697483946153   1.0000000
B2   B   0.051169362363627   0.954335841745363   0.110753861324326   1.0000000
B2   B   0.053148807942903   0.097832030496118   0.110852014389987   1.0000000
B2   B   0.051717884571910   0.238705376330278   0.110926783989390   1.0000000
B2   B   0.050357919399180   0.380902851091000   0.110750239302009   1.0000000
B2   B   0.049259456354916   0.524331507645879   0.110743899531183   1.0000000
B2   B   0.049893824450296   0.667957229999137   0.110811142488620   1.0000000
B2   B   0.049703136451994   0.811147246188416   0.110815417172243   1.0000000
B2   B   0.193791664632813   0.955896171071275   0.110766017744149   1.0000000
B2   B   0.197047184337226   0.100630570784221   0.110801827444371   1.0000000
B2   B   0.196073337191230   0.241126764776267   0.110870696822360   1.0000000
B2   B   0.192385639696062   0.381534799633735   0.110752527650662   1.0000000
B2   B   0.188623910085047   0.525070354647487   0.110723826275990   1.0000000
B2   B   0.189442352096854   0.669139345098687   0.110848452088915   1.0000000
B2   B   0.191969376847513   0.812458692114974   0.110854625140113   1.0000000
B2   B   0.335665401452240   0.955731707295736   0.110819976432540   1.0000000
B2   B   0.338141187793242   0.100014635382856   0.110814846813483   1.0000000
B2   B   0.345006439005677   0.248969692526379   0.110840833423128   1.0000000
B2   B   0.338055283137358   0.383606168897861   0.110736134566613   1.0000000
B2   B   0.326505497687431   0.526178331688979   0.110737799318000   1.0000000
B2   B   0.327537215392001   0.670241121305374   0.110881116619759   1.0000000
B2   B   0.333765161815143   0.812923420603941   0.110899938414767   1.0000000
B2   B   0.477764753902735   0.953894172702332   0.110802057036463   1.0000000
B2   B   0.479455129710774   0.096151211782509   0.110840603131439   1.0000000
B2   B   0.482324475281204   0.239736193765451   0.110917394450412   1.0000000
B2   B   0.504017482799112   0.399066554147450   0.110748658360154   1.0000000
B2   B   0.462901021400914   0.667434633136587   0.110432944897563   1.0000000
B2   B   0.476139788523685   0.811613308647788   0.110742231304543   1.0000000
B2   B   0.620964202332640   0.955254476789936   0.110777340438312   1.0000000
B2   B   0.621998642538369   0.094735348221622   0.110758627954263   1.0000000
B2   B   0.623381109052423   0.234255664522154   0.110828871629673   1.0000000
B2   B   0.626253789000331   0.372248101140802   0.110935398570664   1.0000000
B2   B   0.612156881366903   0.495095938239190   0.110613135926882   1.0000000
B2   B   0.620997605195414   0.816596083668917   0.110344254036660   1.0000000
B2   B   0.765770059676348   0.954412431285383   0.110704318768747   1.0000000
B2   B   0.765545163508548   0.095268019263425   0.110763840735799   1.0000000
B2   B   0.766194858906474   0.236254392784251   0.110719351433422   1.0000000
B2   B   0.767694968478344   0.377436486626086   0.110828752375694   1.0000000
B2   B   0.767046203135385   0.518035875702636   0.110855179955948   1.0000000
B2   B   0.764128070925984   0.655350515654534   0.110555612215267   1.0000000
B2   B   0.768726835264721   0.814843882804681   0.110367876484268   1.0000000
In2   In   0.615519168508530   0.656175228167148   0.110070074072999   1.0000000
N2   N   0.955343318272417   0.904896532883902   0.110710893621539   1.0000000
N2   N   0.958126223972990   0.050051273560886   0.110820546525083   1.0000000
N2   N   0.956724832490342   0.190798213760215   0.110899741382832   1.0000000
N2   N   0.956117784103825   0.332409463389204   0.110726463583411   1.0000000
N2   N   0.955665224181831   0.474983999543695   0.110736097630685   1.0000000
N2   N   0.956424113799361   0.618336871880814   0.110784984428552   1.0000000
N2   N   0.954738060381909   0.761788497252784   0.110779393316827   1.0000000
N2   N   0.098400472634193   0.906855116157617   0.110750768526289   1.0000000
N2   N   0.100579908150247   0.050551261435920   0.110767517764191   1.0000000
N2   N   0.100445598725171   0.192601377398431   0.110914067243216   1.0000000
N2   N   0.097803023502545   0.333443983560481   0.110815584442904   1.0000000
N2   N   0.095214111139972   0.476039028686931   0.110700542579801   1.0000000
N2   N   0.095794707968365   0.619842238306280   0.110784599857090   1.0000000
N2   N   0.097135894442524   0.763629732395815   0.110824044062709   1.0000000
N2   N   0.240430681625167   0.907691207738629   0.110788145315107   1.0000000
N2   N   0.242540682757548   0.051297736067144   0.110747757517731   1.0000000
N2   N   0.246430149965309   0.196757301750148   0.110840519948708   1.0000000
N2   N   0.241877011741634   0.335607028651651   0.110780350786199   1.0000000
N2   N   0.233918402832752   0.476327274591278   0.110667461976972   1.0000000
N2   N   0.234139985390812   0.620565474272620   0.110782356935994   1.0000000
N2   N   0.238599986384365   0.764542131072952   0.110892801989923   1.0000000
N2   N   0.382504937661317   0.907623668940276   0.110843070345929   1.0000000
N2   N   0.384145838338631   0.050385911354824   0.110803184481991   1.0000000
N2   N   0.386787205208621   0.194828972057328   0.110862364026777   1.0000000
N2   N   0.395523312457615   0.346194728113409   0.110735203953190   1.0000000
N2   N   0.371701677373013   0.477687463587279   0.110643697762619   1.0000000
N2   N   0.370011205581423   0.621164303846295   0.110904965787926   1.0000000
N2   N   0.380209871497072   0.765207134473112   0.110839509853746   1.0000000
N2   N   0.525221635451849   0.906612215223153   0.110771876061216   1.0000000
N2   N   0.526658283659628   0.048189514594216   0.110774481334695   1.0000000
N2   N   0.528388456946930   0.189780558810764   0.110865243927705   1.0000000
N2   N   0.532507356641875   0.332080683570805   0.110897900173068   1.0000000
N2   N   0.459402002968262   0.521817626149982   0.110321954352704   1.0000000
N2   N   0.491922946676109   0.608028158155546   0.109713529199581   1.0000000
N2   N   0.522907390890752   0.763560800499484   0.110482796606794   1.0000000
N2   N   0.669573534243854   0.910546797742658   0.110702657435922   1.0000000
N2   N   0.670189852316902   0.048903094366130   0.110761086110179   1.0000000
N2   N   0.671270775572899   0.188121621049251   0.110708353606048   1.0000000
N2   N   0.673840407400045   0.326907495638484   0.110889814172428   1.0000000
N2   N   0.674293800380211   0.464074326092199   0.110876537702504   1.0000000
N2   N   0.673947160551476   0.591581803086469   0.110271730282688   1.0000000
N2   N   0.677702544479601   0.782551496519988   0.109862031651961   1.0000000
N2   N   0.816751967136777   0.909665222567065   0.110657699003274   1.0000000
N2   N   0.813984725005426   0.048946123390490   0.110767806775020   1.0000000
N2   N   0.814011583039699   0.189642785222768   0.110727987682249   1.0000000
N2   N   0.815010013484150   0.330712714816545   0.110721763184761   1.0000000
N2   N   0.815558664491911   0.472312434014989   0.110831404221741   1.0000000
N2   N   0.816874906844332   0.614558407144340   0.110812003050096   1.0000000
N2   N   0.808739214845210   0.757554254659114   0.110526121325204   1.0000000


