data_1
_audit_creation_method   'vasp2cif'
_cell_length_a    17.52789999999977
_cell_length_b    17.52789999999977
_cell_length_c    15.0
_cell_angle_alpha    90.0
_cell_angle_beta    90.0
_cell_angle_gamma    119.99999999999916

_symmetry_space_group_name_H-M    'P 1'
loop_
_atom_site_label
_atom_site_type_symbol
_atom_site_fract_x
_atom_site_fract_y
_atom_site_fract_z
_atom_site_occupancy
B2   B   0.905279789980037   0.953231459395186   0.111018090544655   1.0000000
B2   B   0.905066055878842   0.095427849861314   0.111028869884996   1.0000000
B2   B   0.905239235510105   0.237856582070177   0.111054380024433   1.0000000
B2   B   0.905995062310224   0.380615154865485   0.111054727327795   1.0000000
B2   B   0.909222407002464   0.524547513236629   0.111242101704190   1.0000000
B2   B   0.909220869356919   0.670487734863260   0.111028415470632   1.0000000
B2   B   0.905972517129401   0.811147025943142   0.111014029966274   1.0000000
B2   B   0.048045727667270   0.952871040356070   0.111087403129366   1.0000000
B2   B   0.047669933709408   0.095359084350044   0.110995892218437   1.0000000
B2   B   0.047692651359059   0.238061143062249   0.110968875709413   1.0000000
B2   B   0.048083013266212   0.380967700594763   0.111056678565292   1.0000000
B2   B   0.049369672667634   0.524191028598664   0.111105464060540   1.0000000
B2   B   0.049347691236005   0.667531144744756   0.111054554348384   1.0000000
B2   B   0.049380282944013   0.810953006765953   0.111121421238363   1.0000000
B2   B   0.190542362558975   0.952161370293861   0.111059029132415   1.0000000
B2   B   0.189938784018743   0.094683569508780   0.111006556291996   1.0000000
B2   B   0.189789565498444   0.237686269278900   0.110995222068908   1.0000000
B2   B   0.189949478714491   0.380959887220231   0.110941300222957   1.0000000
B2   B   0.190547216574513   0.524140219594061   0.111084538045108   1.0000000
B2   B   0.191077233392590   0.667057289069759   0.111119223694360   1.0000000
B2   B   0.191067047927752   0.809747988101374   0.111053857025839   1.0000000
B2   B   0.333092353281251   0.951704051897230   0.111054965869633   1.0000000
B2   B   0.331804049068398   0.093206526698809   0.110968116557124   1.0000000
B2   B   0.331472417080220   0.236244843275146   0.111093350760026   1.0000000
B2   B   0.331302765162293   0.380426685014036   0.110769133796107   1.0000000
B2   B   0.331658402887141   0.524425861481225   0.110806179372232   1.0000000
B2   B   0.333130656547612   0.667131106544026   0.111077402663086   1.0000000
B2   B   0.333378668578227   0.809544547361175   0.111114706288866   1.0000000
B2   B   0.475896168926512   0.951738943759957   0.111081301734025   1.0000000
B2   B   0.475339931698985   0.093467163484960   0.111064300346094   1.0000000
B2   B   0.472191502124255   0.233304348191464   0.110692117861008   1.0000000
B2   B   0.471624875839368   0.376456147359714   0.110344271382000   1.0000000
B2   B   0.470962282715395   0.525624364500615   0.111885373890547   1.0000000
B2   B   0.475405535686627   0.667467752261932   0.110977299747069   1.0000000
B2   B   0.475950396139255   0.809695339324134   0.111085670989662   1.0000000
B2   B   0.618922235911489   0.952302657747905   0.110992853443212   1.0000000
B2   B   0.618779539764184   0.093338608291565   0.110984212166627   1.0000000
B2   B   0.618508903931155   0.233282028159747   0.110846171904375   1.0000000
B2   B   0.611573807251699   0.364059801193004   0.113111502401736   1.0000000
B2   B   0.611596754244611   0.532562188462973   0.110946960972591   1.0000000
B2   B   0.619725635098725   0.671352995100178   0.110883165083160   1.0000000
B2   B   0.618985213440003   0.811225755841466   0.111075365270165   1.0000000
B2   B   0.762187673407769   0.953052254014619   0.110996713148733   1.0000000
B2   B   0.762130844375998   0.094921040602718   0.111025365318457   1.0000000
B2   B   0.762393662415857   0.236915764044011   0.110935262478166   1.0000000
B2   B   0.763247063825223   0.379257509258333   0.111140270388343   1.0000000
B2   B   0.778518714977916   0.532166765911336   0.109441815095109   1.0000000
B2   B   0.762863578238433   0.669769030229270   0.111132352798588   1.0000000
B2   B   0.762568692688347   0.811467334202583   0.111057616428355   1.0000000
N2   N   0.953045021253907   0.905815311451464   0.111020915155483   1.0000000
N2   N   0.952760998487534   0.048111606522347   0.110981187199670   1.0000000
N2   N   0.952755644914447   0.190489201703185   0.111013203758270   1.0000000
N2   N   0.953071288488847   0.333045866570022   0.111039290342337   1.0000000
N2   N   0.954678958074340   0.476037340220946   0.111168168964529   1.0000000
N2   N   0.954423386816416   0.620055373654233   0.110999523120119   1.0000000
N2   N   0.954774302651381   0.764478532350350   0.111182135714744   1.0000000
N2   N   0.095914223830992   0.905524623850087   0.111047313455132   1.0000000
N2   N   0.095223213372857   0.047801359917270   0.111010854008794   1.0000000
N2   N   0.095161657456875   0.190469376555310   0.110956743787822   1.0000000
N2   N   0.095291931174439   0.333230310928935   0.110952208013030   1.0000000
N2   N   0.095934012932351   0.476159322375754   0.111081517494209   1.0000000
N2   N   0.096214084265452   0.619351867991398   0.111119627310789   1.0000000
N2   N   0.096210904869700   0.762553046557073   0.111066528009787   1.0000000
N2   N   0.238189163375349   0.904673949124965   0.110996341733107   1.0000000
N2   N   0.237363290576151   0.046953325468890   0.111075454537021   1.0000000
N2   N   0.237247886404497   0.189966584809996   0.111025203860794   1.0000000
N2   N   0.237319715138220   0.333046914818651   0.110912510848556   1.0000000
N2   N   0.237443652819892   0.476152731901722   0.110897083131826   1.0000000
N2   N   0.238253372036953   0.619220092512921   0.111074511197409   1.0000000
N2   N   0.238431277558039   0.762052370697628   0.111044041605389   1.0000000
N2   N   0.380849237899945   0.904450342035689   0.111107735554897   1.0000000
N2   N   0.380302313604142   0.046636426793132   0.111016407025738   1.0000000
N2   N   0.378370180103290   0.188093617349193   0.110691322252469   1.0000000
N2   N   0.379111592973371   0.332560888814371   0.110803153707701   1.0000000
N2   N   0.378483185001161   0.475896497301888   0.110792777622044   1.0000000
N2   N   0.380438175804134   0.619293800818334   0.110974860535628   1.0000000
N2   N   0.380889894733757   0.762025653497954   0.111100789053291   1.0000000
N2   N   0.523725531771212   0.904609599547156   0.111068093105617   1.0000000
N2   N   0.523538239923495   0.046645233343717   0.110998089971534   1.0000000
N2   N   0.522729669952686   0.188476868664291   0.110970347669947   1.0000000
N2   N   0.518280732064953   0.328529099371306   0.110979509873246   1.0000000
N2   N   0.522987662806394   0.619377746280923   0.111137160925260   1.0000000
N2   N   0.523588414477420   0.762310620599181   0.110961150277821   1.0000000
N2   N   0.666912239789989   0.905672496688238   0.110977007326363   1.0000000
N2   N   0.666877102812277   0.046968181437958   0.110990109493046   1.0000000
N2   N   0.666962094531713   0.187923626372512   0.110804443075907   1.0000000
N2   N   0.667271061745399   0.327591708485706   0.111373570995718   1.0000000
N2   N   0.667385826565245   0.625901402104168   0.111148275187401   1.0000000
N2   N   0.667201420060331   0.765077744778009   0.111029331023470   1.0000000
N2   N   0.810199457992798   0.906066367890691   0.110999284465478   1.0000000
N2   N   0.809957899693184   0.047917420451419   0.111015510038562   1.0000000
N2   N   0.810090419268250   0.190001757081131   0.110998363927697   1.0000000
N2   N   0.810621687682372   0.332371498107553   0.110972314644786   1.0000000
N2   N   0.814357170333803   0.475844847041188   0.110906283700231   1.0000000
N2   N   0.814652914452864   0.624376734226009   0.110385270249326   1.0000000
N2   N   0.810624814991094   0.764104620249215   0.111008504652665   1.0000000
O2   O   0.515095538151258   0.474866527820723   0.111417181969339   1.0000000
S2   S   0.665162476597461   0.475507953169411   0.110994339596628   1.0000000


