data_1
_audit_creation_method   'vasp2cif'
_cell_length_a    14.93631414619966
_cell_length_b    14.936314146199727
_cell_length_c    13.341276283792837
_cell_angle_alpha    90.0
_cell_angle_beta    90.0
_cell_angle_gamma    119.99999999999984

_symmetry_space_group_name_H-M    'P 1'
loop_
_atom_site_label
_atom_site_type_symbol
_atom_site_fract_x
_atom_site_fract_y
_atom_site_fract_z
_atom_site_occupancy
In2   In   0.555555555555557   0.444444444444443   0.375000000000000   1.0000000
N2   N   0.111114616020987   0.055531532890521   0.125976625832212   1.0000000
N2   N   0.611114836233958   0.555563005801347   0.125659841879732   1.0000000
N2   N   0.444419985871052   0.055535062260559   0.124537969738059   1.0000000
N2   N   0.944464937739368   0.555580014129045   0.124537969738059   1.0000000
N2   N   0.777757438649925   0.055545385991670   0.128447572305579   1.0000000
N2   N   0.111122940134968   0.722228136734030   0.626060575598481   1.0000000
N2   N   0.444419985871052   0.722218256943859   0.625462030261959   1.0000000
N2   N   0.277762873097010   0.222200856049857   0.624699430806320   1.0000000
N2   N   0.777799143950192   0.722237126903117   0.624699430806320   1.0000000
N2   N   0.611104649619423   0.222200856049857   0.624699430806320   1.0000000
N2   N   0.944454614008307   0.222242561350027   0.621552427694529   1.0000000
N2   N   0.277771863265811   0.722228136734030   0.123939424401639   1.0000000
N2   N   0.111111347441164   0.222222340387287   0.126947038355933   1.0000000
N2   N   0.444445793789799   0.222224920912921   0.125017319000332   1.0000000
N2   N   0.611104649619422   0.722237126903120   0.125300569193597   1.0000000
N2   N   0.944464937739368   0.722218256943859   0.124537969738059   1.0000000
N2   N   0.777777659612896   0.222222340387287   0.126947038355934   1.0000000
N2   N   0.111126693364086   0.888873306636001   0.625469414557740   1.0000000
N2   N   0.444413279938414   0.888873306636001   0.625469414557740   1.0000000
N2   N   0.277762873097017   0.388895350380494   0.624699430806320   1.0000000
N2   N   0.611114836233958   0.388885163765991   0.624340158120115   1.0000000
N2   N   0.777777659612896   0.888888652558603   0.623052961644097   1.0000000
N2   N   0.944468467109468   0.388916416463734   0.624023374167655   1.0000000
N2   N   0.111114616020974   0.388916416463734   0.125976625832211   1.0000000
N2   N   0.277771863265811   0.888877059864950   0.123939424401634   1.0000000
N2   N   0.611083583536189   0.888885383979013   0.125976625832211   1.0000000
N2   N   0.444436994198603   0.388885163765991   0.125659841879698   1.0000000
N2   N   0.944468467109468   0.888885383979013   0.125976625832211   1.0000000
N2   N   0.777799143950192   0.388895350380494   0.125300569193597   1.0000000
N2   N   0.277781743056253   0.555580014129045   0.625462030261959   1.0000000
N2   N   0.111114616020974   0.055531532890521   0.624023374167655   1.0000000
N2   N   0.611114836233958   0.555563005801347   0.624340158120115   1.0000000
N2   N   0.444419985871052   0.055535062260561   0.625462030261959   1.0000000
N2   N   0.944464937739368   0.555580014129045   0.625462030261959   1.0000000
N2   N   0.111126693364086   0.555586720061487   0.124530585442171   1.0000000
N2   N   0.777757438649925   0.055545385991670   0.621552427694529   1.0000000
N2   N   0.277781743056253   0.055535062260561   0.124537969738059   1.0000000
N2   N   0.444445793789837   0.555554206210193   0.125017319000333   1.0000000
N2   N   0.777775079087062   0.555554206210193   0.125017319000328   1.0000000
N2   N   0.611083583536189   0.055531532890525   0.125976625832211   1.0000000
N2   N   0.444445793789837   0.555554206210193   0.624982680999664   1.0000000
N2   N   0.944454614008307   0.055545385991670   0.128447572305579   1.0000000
N2   N   0.277771863265811   0.722228136734030   0.626060575598481   1.0000000
N2   N   0.111111347441164   0.222222340387286   0.623052961644097   1.0000000
N2   N   0.444445793789799   0.222224920912927   0.624982680999664   1.0000000
N2   N   0.611104649619423   0.722237126903117   0.624699430806320   1.0000000
N2   N   0.944464937739368   0.722218256943859   0.625462030261959   1.0000000
N2   N   0.777777659612896   0.222222340387287   0.623052961644167   1.0000000
N2   N   0.111122940134968   0.722228136734030   0.123939424401634   1.0000000
N2   N   0.444419985871052   0.722218256943859   0.124537969738059   1.0000000
N2   N   0.277762873097010   0.222200856049857   0.125300569193597   1.0000000
N2   N   0.777799143950192   0.722237126903120   0.125300569193618   1.0000000
N2   N   0.611104649619422   0.222200856049857   0.125300569193599   1.0000000
N2   N   0.944454614008307   0.222242561350008   0.128447572305580   1.0000000
N2   N   0.111114616020989   0.388916416463734   0.624023374167655   1.0000000
N2   N   0.277771863265811   0.888877059864950   0.626060575598481   1.0000000
N2   N   0.611083583536189   0.888885383979013   0.624023374167655   1.0000000
N2   N   0.444436994198603   0.388885163765991   0.624340158120117   1.0000000
N2   N   0.944468467109468   0.888885383979013   0.624023374167655   1.0000000
N2   N   0.111126693364086   0.888873306636001   0.124530585442171   1.0000000
N2   N   0.777799143950192   0.388895350380494   0.624699430806320   1.0000000
N2   N   0.444413279938414   0.888873306636001   0.124530585442171   1.0000000
N2   N   0.277762873096998   0.388895350380494   0.125300569193599   1.0000000
N2   N   0.277781743056253   0.555580014129045   0.124537969738059   1.0000000
N2   N   0.611114836233958   0.388885163765991   0.125659841879730   1.0000000
N2   N   0.777777659612896   0.888888652558603   0.126947038355933   1.0000000
N2   N   0.944468467109468   0.388916416463734   0.125976625832211   1.0000000
N2   N   0.111126693364086   0.555586720061487   0.625469414557740   1.0000000
N2   N   0.277781743056253   0.055535062260561   0.625462030261959   1.0000000
N2   N   0.777775079086990   0.555554206210193   0.624982680999664   1.0000000
N2   N   0.611083583536189   0.055531532890521   0.624023374167655   1.0000000
N2   N   0.944454614008307   0.055545385991670   0.621552427694529   1.0000000
N2   N   0.054183292857301   0.110233178996251   0.375000000000000   1.0000000
N2   N   0.555263008063514   0.622067313206450   0.375000000000000   1.0000000
N2   N   0.387339729180029   0.108012791693393   0.375000000000000   1.0000000
N2   N   0.891987208306600   0.612660270819871   0.375000000000000   1.0000000
N2   N   0.722716552805630   0.110233178996249   0.375000000000000   1.0000000
N2   N   0.055546651875868   0.777777940057025   0.875000000000000   1.0000000
N2   N   0.388897954847609   0.777777940057000   0.875000000000000   1.0000000
N2   N   0.222213912770343   0.277773623051871   0.875000000000000   1.0000000
N2   N   0.722226376948301   0.777786087229596   0.875000000000000   1.0000000
N2   N   0.555561135313311   0.277783200096945   0.875000000000000   1.0000000
N2   N   0.888890331648171   0.277772176175149   0.875000000000000   1.0000000
N2   N   0.222222222222221   0.777777777777779   0.375000000000000   1.0000000
N2   N   0.054183292857296   0.277283447194419   0.375000000000000   1.0000000
N2   N   0.377932686793882   0.266529028190528   0.375000000000000   1.0000000
N2   N   0.555010744332741   0.782392774922385   0.375000000000000   1.0000000
N2   N   0.894048697256286   0.782392774922385   0.375000000000000   1.0000000
N2   N   0.724374648091871   0.275625351908082   0.375000000000000   1.0000000
N2   N   0.055550602420832   0.944449397579149   0.875000000000000   1.0000000
N2   N   0.388897954847609   0.944453348124052   0.875000000000000   1.0000000
N2   N   0.222216469133411   0.444435130498789   0.875000000000000   1.0000000
N2   N   0.555555555555557   0.444444444444443   0.875000000000000   1.0000000
N2   N   0.722227823824706   0.944451488806513   0.875000000000000   1.0000000
N2   N   0.888885328032041   0.444435130498789   0.875000000000000   1.0000000
N2   N   0.055777084570365   0.444887502474030   0.375000000000000   1.0000000
N2   N   0.221731748225868   0.943192717993193   0.375000000000000   1.0000000
N2   N   0.555112497526034   0.944222915429653   0.375000000000000   1.0000000
N2   N   0.377932686793884   0.444736991936659   0.375000000000000   1.0000000
N2   N   0.889766821003817   0.945816707142764   0.375000000000000   1.0000000
N2   N   0.733470971809426   0.444736991936659   0.375000000000000   1.0000000
N2   N   0.222222059943151   0.611102045152285   0.875000000000000   1.0000000
N2   N   0.055548511193520   0.111109668351682   0.875000000000000   1.0000000
N2   N   0.555561135313318   0.611111268549626   0.875000000000000   1.0000000
N2   N   0.388896311256362   0.111125955845849   0.875000000000000   1.0000000
N2   N   0.888874044154048   0.611103688743721   0.875000000000000   1.0000000
N2   N   0.056807282006891   0.611872363566093   0.375000000000000   1.0000000
N2   N   0.722227823824706   0.111109668351678   0.875000000000000   1.0000000
N2   N   0.217607225077625   0.105951302743694   0.375000000000000   1.0000000
N2   N   0.387339729180028   0.612660270819871   0.375000000000000   1.0000000
N2   N   0.733470971809427   0.622067313206450   0.375000000000000   1.0000000
N2   N   0.555010744332775   0.105951302743694   0.375000000000000   1.0000000
N2   N   0.388896311256301   0.611103688743725   0.875000000000000   1.0000000
N2   N   0.888888888888886   0.111111111111114   0.375000000000000   1.0000000
N2   N   0.222222222222221   0.777777777777779   0.875000000000000   1.0000000
N2   N   0.055548511193520   0.277772176175149   0.875000000000000   1.0000000
N2   N   0.388888731450407   0.277783200096945   0.875000000000000   1.0000000
N2   N   0.555564869501141   0.777783530866567   0.875000000000000   1.0000000
N2   N   0.888885328032041   0.777783530866567   0.875000000000000   1.0000000
N2   N   0.722226376948301   0.277773623051871   0.875000000000000   1.0000000
N2   N   0.056807282006893   0.778268251774101   0.375000000000000   1.0000000
N2   N   0.388127636433780   0.778268251774101   0.375000000000000   1.0000000
N2   N   0.217917370482832   0.275625351908094   0.375000000000000   1.0000000
N2   N   0.724374648091865   0.782082629517156   0.375000000000000   1.0000000
N2   N   0.555263008063511   0.266529028190528   0.375000000000000   1.0000000
N2   N   0.889766821003794   0.277283447194419   0.375000000000000   1.0000000
N2   N   0.055550602420831   0.444434538175074   0.875000000000000   1.0000000
N2   N   0.222222059943150   0.944453348124052   0.875000000000000   1.0000000
N2   N   0.555565461825058   0.944449397579149   0.875000000000000   1.0000000
N2   N   0.388888731450407   0.444438864686746   0.875000000000000   1.0000000
N2   N   0.888890331648171   0.944451488806508   0.875000000000000   1.0000000
N2   N   0.055777084570368   0.944222915429653   0.375000000000000   1.0000000
N2   N   0.722216799903147   0.444438864686746   0.875000000000000   1.0000000
N2   N   0.388127636433781   0.943192717993193   0.375000000000000   1.0000000
N2   N   0.217607225077625   0.444989255667389   0.375000000000000   1.0000000
N2   N   0.221731748225869   0.611872363566093   0.375000000000000   1.0000000
N2   N   0.722716552805630   0.945816707142764   0.375000000000000   1.0000000
N2   N   0.894048697256286   0.444989255667389   0.375000000000000   1.0000000
N2   N   0.055546651875868   0.611102045152285   0.875000000000000   1.0000000
N2   N   0.222216469133411   0.111114671967921   0.875000000000000   1.0000000
N2   N   0.722216799903147   0.611111268549626   0.875000000000000   1.0000000
N2   N   0.555564869501141   0.111114671967921   0.875000000000000   1.0000000
N2   N   0.888888888888886   0.111111111111114   0.875000000000000   1.0000000
B2   B   0.107931320561357   0.053293736306581   0.375000000000000   1.0000000
B2   B   0.631605749111828   0.596544831556997   0.375000000000000   1.0000000
B2   B   0.443812214505683   0.052644577295362   0.375000000000000   1.0000000
B2   B   0.947355422704728   0.556187785494390   0.375000000000000   1.0000000
B2   B   0.778607507416421   0.055970420374840   0.375000000000000   1.0000000
B2   B   0.111120222632922   0.722226777983038   0.875000000000000   1.0000000
B2   B   0.444448287939110   0.722270360336380   0.875000000000000   1.0000000
B2   B   0.277673387211792   0.222157771337215   0.875000000000000   1.0000000
B2   B   0.777842228662686   0.722326612788103   0.875000000000000   1.0000000
B2   B   0.611151050791915   0.222157771337215   0.875000000000000   1.0000000
B2   B   0.944429870006797   0.222193073346872   0.875000000000000   1.0000000
B2   B   0.277353056179148   0.722646943820699   0.375000000000000   1.0000000
B2   B   0.107342934196725   0.220338133765032   0.375000000000000   1.0000000
B2   B   0.441424582808734   0.216182498950780   0.375000000000000   1.0000000
B2   B   0.613164660499458   0.733011161871627   0.375000000000000   1.0000000
B2   B   0.947355422704728   0.724500970543389   0.375000000000000   1.0000000
B2   B   0.779661866234986   0.220338133765032   0.375000000000000   1.0000000
B2   B   0.111104272832310   0.888895727167630   0.875000000000000   1.0000000
B2   B   0.444458121002025   0.888895727167630   0.875000000000000   1.0000000
B2   B   0.277673387211792   0.388848949207940   0.875000000000000   1.0000000
B2   B   0.611153198060979   0.388846801939150   0.875000000000000   1.0000000
B2   B   0.777819731557127   0.888972796447787   0.875000000000000   1.0000000
B2   B   0.944461851114685   0.388850471969389   0.875000000000000   1.0000000
B2   B   0.107931320561357   0.387970917588104   0.375000000000000   1.0000000
B2   B   0.277353056179148   0.888039445691625   0.375000000000000   1.0000000
B2   B   0.612029082411961   0.892068679438659   0.375000000000000   1.0000000
B2   B   0.403455168442968   0.368394250888168   0.375000000000000   1.0000000
B2   B   0.946706263693450   0.892068679438659   0.375000000000000   1.0000000
B2   B   0.786513168038858   0.386835339500588   0.375000000000000   1.0000000
B2   B   0.277729639663752   0.555551712060876   0.875000000000000   1.0000000
B2   B   0.111055287521286   0.055538148885324   0.875000000000000   1.0000000
B2   B   0.611153198060979   0.555639729455028   0.875000000000000   1.0000000
B2   B   0.444448287939110   0.055511260936075   0.875000000000000   1.0000000
B2   B   0.944488739063923   0.555551712060876   0.875000000000000   1.0000000
B2   B   0.111221713598100   0.555776760529573   0.375000000000000   1.0000000
B2   B   0.777806926653198   0.055570129993240   0.875000000000000   1.0000000
B2   B   0.275499029456268   0.052644577295364   0.375000000000000   1.0000000
B2   B   0.441424582808737   0.558575417191226   0.375000000000000   1.0000000
B2   B   0.783817501049200   0.558575417191226   0.375000000000000   1.0000000
B2   B   0.612029082411961   0.053293736306582   0.375000000000000   1.0000000
B2   B   0.444408432083356   0.555591567916728   0.875000000000000   1.0000000
B2   B   0.944029579625167   0.055970420374840   0.375000000000000   1.0000000
B2   B   0.277773222016868   0.722226777983038   0.875000000000000   1.0000000
B2   B   0.111027203552371   0.222180268442894   0.875000000000000   1.0000000
B2   B   0.444408432083356   0.222150197499955   0.875000000000000   1.0000000
B2   B   0.611151050791918   0.722326612788103   0.875000000000000   1.0000000
B2   B   0.944488739063923   0.722270360336380   0.875000000000000   1.0000000
B2   B   0.777819731557127   0.222180268442893   0.875000000000000   1.0000000
B2   B   0.111960554308339   0.722646943820700   0.375000000000000   1.0000000
B2   B   0.443812214505685   0.724500970543394   0.375000000000000   1.0000000
B2   B   0.266988838128405   0.213486831961086   0.375000000000000   1.0000000
B2   B   0.786513168038847   0.733011161871678   0.375000000000000   1.0000000
B2   B   0.613164660499460   0.213486831961087   0.375000000000000   1.0000000
B2   B   0.944029579625167   0.221392492583607   0.375000000000000   1.0000000
B2   B   0.111055287521267   0.388850471969389   0.875000000000000   1.0000000
B2   B   0.277773222016868   0.888879777367065   0.875000000000000   1.0000000
B2   B   0.611149528030810   0.888944712478716   0.875000000000000   1.0000000
B2   B   0.444360270544859   0.388846801939150   0.875000000000000   1.0000000
B2   B   0.944461851114685   0.888944712478716   0.875000000000000   1.0000000
B2   B   0.111221713598086   0.888778286401861   0.375000000000000   1.0000000
B2   B   0.777842228662680   0.388848949207940   0.875000000000000   1.0000000
B2   B   0.444223239470632   0.888778286401861   0.375000000000000   1.0000000
B2   B   0.266988838128403   0.386835339500587   0.375000000000000   1.0000000
B2   B   0.275499029456259   0.556187785494434   0.375000000000000   1.0000000
B2   B   0.631605749111841   0.368394250888177   0.375000000000000   1.0000000
B2   B   0.779661866234986   0.892657065803440   0.375000000000000   1.0000000
B2   B   0.946706263693440   0.387970917588104   0.375000000000000   1.0000000
B2   B   0.111104272832310   0.555541878997918   0.875000000000000   1.0000000
B2   B   0.277729639663752   0.055511260936080   0.875000000000000   1.0000000
B2   B   0.777849802499952   0.555591567916728   0.875000000000000   1.0000000
B2   B   0.611149528030810   0.055538148885324   0.875000000000000   1.0000000
B2   B   0.944429870006797   0.055570129993240   0.875000000000000   1.0000000
B2   B   0.055484410751425   0.111041746548468   0.126863579665815   1.0000000
B2   B   0.555478888512270   0.611419705975729   0.124136972050680   1.0000000
B2   B   0.388723943232279   0.110781219797872   0.123958092761693   1.0000000
B2   B   0.889218780202066   0.611276056767525   0.123958092761693   1.0000000
B2   B   0.722224002463587   0.111041746548468   0.126863579665815   1.0000000
B2   B   0.055693059413162   0.777825145117152   0.626150728593378   1.0000000
B2   B   0.388798752370639   0.777825145117152   0.626150728593378   1.0000000
B2   B   0.221972627886560   0.277652980610029   0.624851599678501   1.0000000
B2   B   0.722347019390031   0.778027372113306   0.624851599678501   1.0000000
B2   B   0.555478888512270   0.277392515869593   0.625863027949217   1.0000000
B2   B   0.888958253451579   0.277775997536273   0.623136420334221   1.0000000
B2   B   0.222222222222221   0.777777777777779   0.123487932360545   1.0000000
B2   B   0.055484410751426   0.277775997536273   0.126863579665815   1.0000000
B2   B   0.388580294024354   0.277392515869593   0.124136972050680   1.0000000
B2   B   0.555487020898875   0.777946146317817   0.124655137359594   1.0000000
B2   B   0.889125792085255   0.777946146317817   0.124655137359594   1.0000000
B2   B   0.722347019390031   0.277652980610029   0.125148400321549   1.0000000
B2   B   0.055589913223664   0.944410086776304   0.624906971816083   1.0000000
B2   B   0.388798752370639   0.944306940586756   0.626150728593378   1.0000000
B2   B   0.222053853682194   0.444512979101036   0.625344862640155   1.0000000
B2   B   0.555555555555557   0.444444444444443   0.626505821387259   1.0000000
B2   B   0.722224002463588   0.944515589248507   0.623136420334221   1.0000000
B2   B   0.889125792085255   0.444512979101036   0.625344862640155   1.0000000
B2   B   0.055589913223664   0.444513159780691   0.125093028183991   1.0000000
B2   B   0.222174854882944   0.944306940586756   0.123849271406503   1.0000000
B2   B   0.555486840219165   0.944410086776304   0.125093028183991   1.0000000
B2   B   0.388580294024354   0.444521111487880   0.124136972050680   1.0000000
B2   B   0.888958253451648   0.944515589248507   0.126863579665815   1.0000000
B2   B   0.722607484130203   0.444521111487880   0.124136972050680   1.0000000
B2   B   0.222174854882944   0.611201247629409   0.626150728593378   1.0000000
B2   B   0.055484410751427   0.111041746548455   0.623136420334221   1.0000000
B2   B   0.555478888512270   0.611419705975729   0.625863027949217   1.0000000
B2   B   0.388723943232279   0.110781219797872   0.626041907238349   1.0000000
B2   B   0.889218780202096   0.611276056767529   0.626041907238341   1.0000000
B2   B   0.055693059413162   0.611201247629409   0.123849271406503   1.0000000
B2   B   0.722224002463587   0.111041746548455   0.623136420334221   1.0000000
B2   B   0.222053853682191   0.110874207914469   0.124655137359594   1.0000000
B2   B   0.388723943232279   0.611276056767525   0.123958092761693   1.0000000
B2   B   0.722607484130203   0.611419705975729   0.124136972050680   1.0000000
B2   B   0.555487020898875   0.110874207914469   0.124655137359588   1.0000000
B2   B   0.388723943232296   0.611276056767529   0.626041907238341   1.0000000
B2   B   0.888888888888886   0.111111111111114   0.128433523545530   1.0000000
B2   B   0.222222222222221   0.777777777777779   0.626512067639495   1.0000000
B2   B   0.055484410751424   0.277775997536273   0.623136420334221   1.0000000
B2   B   0.388580294024354   0.277392515869593   0.625863027949217   1.0000000
B2   B   0.555487020898875   0.777946146317817   0.625344862640155   1.0000000
B2   B   0.889125792085255   0.777946146317817   0.625344862640155   1.0000000
B2   B   0.722347019390031   0.277652980610015   0.624851599678501   1.0000000
B2   B   0.055693059413162   0.777825145117152   0.123849271406503   1.0000000
B2   B   0.388798752370639   0.777825145117152   0.123849271406503   1.0000000
B2   B   0.221972627886560   0.277652980610015   0.125148400321550   1.0000000
B2   B   0.722347019390031   0.778027372113279   0.125148400321550   1.0000000
B2   B   0.555478888512270   0.277392515869593   0.124136972050680   1.0000000
B2   B   0.888958253451579   0.277775997536273   0.126863579665815   1.0000000
B2   B   0.055589913223664   0.444513159780691   0.624906971816083   1.0000000
B2   B   0.222174854882944   0.944306940586756   0.626150728593378   1.0000000
B2   B   0.555486840219165   0.944410086776304   0.624906971816083   1.0000000
B2   B   0.388580294024352   0.444521111487880   0.625863027949217   1.0000000
B2   B   0.888958253451580   0.944515589248507   0.623136420334221   1.0000000
B2   B   0.055589913223664   0.944410086776304   0.125093028183991   1.0000000
B2   B   0.722607484130203   0.444521111487880   0.625863027949217   1.0000000
B2   B   0.388798752370639   0.944306940586756   0.123849271406503   1.0000000
B2   B   0.222053853682190   0.444512979101036   0.124655137359594   1.0000000
B2   B   0.222174854882944   0.611201247629409   0.123849271406503   1.0000000
B2   B   0.555555555555557   0.444444444444443   0.123494178612885   1.0000000
B2   B   0.722224002463588   0.944515589248507   0.126863579665815   1.0000000
B2   B   0.889125792085255   0.444512979101036   0.124655137359594   1.0000000
B2   B   0.055693059413162   0.611201247629409   0.626150728593378   1.0000000
B2   B   0.222053853682191   0.110874207914469   0.625344862640155   1.0000000
B2   B   0.722607484130203   0.611419705975729   0.625863027949217   1.0000000
B2   B   0.555487020898875   0.110874207914467   0.625344862640155   1.0000000
B2   B   0.888888888888886   0.111111111111114   0.621566476454463   1.0000000


