data_1
_audit_creation_method   'vasp2cif'
_cell_length_a    17.52789999999977
_cell_length_b    17.52789999999977
_cell_length_c    15.0
_cell_angle_alpha    90.0
_cell_angle_beta    90.0
_cell_angle_gamma    119.99999999999916

_symmetry_space_group_name_H-M    'P 1'
loop_
_atom_site_label
_atom_site_type_symbol
_atom_site_fract_x
_atom_site_fract_y
_atom_site_fract_z
_atom_site_occupancy
Si2   Si   0.449869087687674   0.510649746467839   0.111108755955730   1.0000000
B2   B   0.904730315901484   0.952349260365916   0.110987455494965   1.0000000
B2   B   0.906078007027678   0.096022384983390   0.111042362018079   1.0000000
B2   B   0.906540705881692   0.238984699786354   0.111104932570067   1.0000000
B2   B   0.906078007027678   0.381484315735294   0.111042362018079   1.0000000
B2   B   0.904730315901484   0.523811460783575   0.110987455494965   1.0000000
B2   B   0.903515937235803   0.666154451575134   0.111034562141975   1.0000000
B2   B   0.903515937235803   0.808791890908676   0.111034562141975   1.0000000
B2   B   0.046775138097627   0.951517331944029   0.110992237432387   1.0000000
B2   B   0.048034023856052   0.095037094572454   0.111013678852365   1.0000000
B2   B   0.049573448601264   0.239003062548591   0.111056115425122   1.0000000
B2   B   0.049573448601264   0.382000791299666   0.111056115425122   1.0000000
B2   B   0.048034023856052   0.524427334531584   0.111013678852365   1.0000000
B2   B   0.046775138097627   0.666689922957603   0.110992237432387   1.0000000
B2   B   0.046478494333294   0.808955305568644   0.110970730181802   1.0000000
B2   B   0.189624420240602   0.951462604115405   0.110992128346300   1.0000000
B2   B   0.189837699148607   0.093601098212998   0.111063652391192   1.0000000
B2   B   0.191344714424004   0.237272336940904   0.111039964347907   1.0000000
B2   B   0.193496988942455   0.382463697094722   0.111040169583259   1.0000000
B2   B   0.191344714424004   0.525502782731097   0.111039964347907   1.0000000
B2   B   0.189837699148607   0.667667006183606   0.111063652391192   1.0000000
B2   B   0.189624420240602   0.809593932929203   0.110992128346300   1.0000000
B2   B   0.333002185568114   0.952217151185554   0.111014715919816   1.0000000
B2   B   0.332982924777237   0.093224065507161   0.111073766242693   1.0000000
B2   B   0.332739013345232   0.233616489499320   0.111031883651478   1.0000000
B2   B   0.334362772110031   0.374485712806995   0.111014773655570   1.0000000
B2   B   0.334362772110031   0.531307464550039   0.111014773655570   1.0000000
B2   B   0.332739013345232   0.670552929092915   0.111031883651478   1.0000000
B2   B   0.332982924777237   0.811189264517083   0.111073766242693   1.0000000
B2   B   0.476649365053663   0.953447708690155   0.111011661285843   1.0000000
B2   B   0.476649365053663   0.094632061610503   0.111011661285843   1.0000000
B2   B   0.476546820347559   0.235674325423811   0.111036917925617   1.0000000
B2   B   0.476908575106988   0.376478507571343   0.110997058205687   1.0000000
B2   B   0.476908575106988   0.671860472782652   0.110997058205687   1.0000000
B2   B   0.476546820347559   0.812302900170751   0.111036917925617   1.0000000
B2   B   0.620101878062295   0.953706872105724   0.110996070321233   1.0000000
B2   B   0.620198375888498   0.095813534789747   0.110982541660747   1.0000000
B2   B   0.620101878062295   0.237825411203564   0.110996070321233   1.0000000
B2   B   0.619798351682590   0.380050509415758   0.111023802601378   1.0000000
B2   B   0.617603364355907   0.522285630725418   0.111093537842613   1.0000000
B2   B   0.617603364355907   0.666748138878474   0.111093537842613   1.0000000
B2   B   0.619798351682590   0.811178247513837   0.111023802601378   1.0000000
B2   B   0.762817474559896   0.953300224239377   0.110992795013568   1.0000000
B2   B   0.763359371746115   0.096168078398438   0.111033180670489   1.0000000
B2   B   0.763359371746115   0.238619987038677   0.111033180670489   1.0000000
B2   B   0.762817474559896   0.380947655567525   0.110992795013568   1.0000000
B2   B   0.761367112514914   0.523251881474742   0.111059199693606   1.0000000
B2   B   0.759978425019214   0.665704415133603   0.111111791151595   1.0000000
B2   B   0.761367112514914   0.809545636288175   0.111059199693606   1.0000000
N2   N   0.951653635036812   0.904164175076169   0.110979091294076   1.0000000
N2   N   0.952972929599126   0.047807068151152   0.110981951170855   1.0000000
N2   N   0.954335583897003   0.191510979955135   0.111064843026145   1.0000000
N2   N   0.954335583897003   0.334251586059863   0.111064843026145   1.0000000
N2   N   0.952972929599126   0.476592843565976   0.110981951170855   1.0000000
N2   N   0.951653635036812   0.618918153635626   0.110979091294076   1.0000000
N2   N   0.951251205569063   0.761339949622030   0.111000059454833   1.0000000
N2   N   0.094400604917790   0.904067726013890   0.110954650368093   1.0000000
N2   N   0.094859950328093   0.046778820724786   0.111003633204986   1.0000000
N2   N   0.096399887830355   0.190613984979017   0.111016965187763   1.0000000
N2   N   0.098195692113617   0.334812192893808   0.111027397934176   1.0000000
N2   N   0.096399887830355   0.477214596525341   0.111016965187763   1.0000000
N2   N   0.094859950328093   0.619509823278312   0.111003633204986   1.0000000
N2   N   0.094400604917790   0.761763284134904   0.110954650368093   1.0000000
N2   N   0.237628446695330   0.904529425963163   0.110963959400606   1.0000000
N2   N   0.237662029127886   0.046412697058062   0.111039745354509   1.0000000
N2   N   0.237904621327108   0.188713434536489   0.111055781394714   1.0000000
N2   N   0.240620553354824   0.333539791292292   0.111020610069695   1.0000000
N2   N   0.240620553354824   0.478509455736528   0.111020610069695   1.0000000
N2   N   0.237904621327108   0.620619880465620   0.111055781394714   1.0000000
N2   N   0.237662029127886   0.762678025744834   0.111039745354509   1.0000000
N2   N   0.381209200097246   0.905786370994913   0.111016104668482   1.0000000
N2   N   0.381209200097246   0.046851522777345   0.111016104668482   1.0000000
N2   N   0.381129007661092   0.187722709807821   0.111056811315096   1.0000000
N2   N   0.380986495113890   0.328036918707241   0.110918162917290   1.0000000
N2   N   0.380986495113890   0.624378270081641   0.110918162917290   1.0000000
N2   N   0.381129007661092   0.764834991528280   0.111056811315096   1.0000000
N2   N   0.524724639700395   0.906759630166502   0.111002232254955   1.0000000
N2   N   0.524823921082388   0.048125451600700   0.110972002445831   1.0000000
N2   N   0.524724639700395   0.189393703208891   0.111002232254955   1.0000000
N2   N   0.524538542606474   0.330406763461796   0.111000420887942   1.0000000
N2   N   0.522211882660575   0.470892628879688   0.110993292998755   1.0000000
N2   N   0.522211882660575   0.622747947455885   0.110993292998755   1.0000000
N2   N   0.524538542606474   0.765560472819687   0.111000420887942   1.0000000
N2   N   0.667677596276962   0.906163944259079   0.110976768909989   1.0000000
N2   N   0.668089370168916   0.048686197537428   0.110979392988370   1.0000000
N2   N   0.668089370168916   0.190830154750493   0.110979392988370   1.0000000
N2   N   0.667677596276962   0.332942345692885   0.110976768909989   1.0000000
N2   N   0.666208640337200   0.475297870019137   0.111050274467396   1.0000000
N2   N   0.664247960287647   0.617838326981825   0.111096039952876   1.0000000
N2   N   0.666208640337200   0.762339463993060   0.111050274467396   1.0000000
N2   N   0.809612978234131   0.904988351213977   0.110984639157321   1.0000000
N2   N   0.810893375905840   0.048582967451702   0.111008278121026   1.0000000
N2   N   0.811289961207923   0.191358471662963   0.111051688584340   1.0000000
N2   N   0.810893375905840   0.333737390572136   0.111008278121026   1.0000000
N2   N   0.809612978234131   0.476053320694149   0.110984639157321   1.0000000
N2   N   0.808222399725784   0.618463293912528   0.111059231123619   1.0000000
N2   N   0.808222399725784   0.761187799488261   0.111059231123619   1.0000000


