data_1
_audit_creation_method   'vasp2cif'
_cell_length_a    17.52789999999977
_cell_length_b    17.52789999999977
_cell_length_c    15.0
_cell_angle_alpha    90.0
_cell_angle_beta    90.0
_cell_angle_gamma    119.99999999999916

_symmetry_space_group_name_H-M    'P 1'
loop_
_atom_site_label
_atom_site_type_symbol
_atom_site_fract_x
_atom_site_fract_y
_atom_site_fract_z
_atom_site_occupancy
B2   B   0.904004447958821   0.951673418570791   0.110405089019622   1.0000000
B2   B   0.905039245297101   0.094962775898896   0.110566507671706   1.0000000
B2   B   0.905412861875191   0.237883840665320   0.110825635598760   1.0000000
B2   B   0.905459977298744   0.380762097019004   0.111102651666375   1.0000000
B2   B   0.905057475444952   0.523645338029150   0.112010010050455   1.0000000
B2   B   0.903718019227463   0.666289289566258   0.111382038908034   1.0000000
B2   B   0.903122627609116   0.808513029774511   0.111353952627433   1.0000000
B2   B   0.047296388878129   0.952705632317874   0.110728797985131   1.0000000
B2   B   0.048328602625212   0.095997573237175   0.110405089019622   1.0000000
B2   B   0.048663302705008   0.238662233548300   0.110268546411712   1.0000000
B2   B   0.048363743430756   0.381241456785852   0.109559001122826   1.0000000
B2   B   0.047639735209778   0.524059371159442   0.110274409025132   1.0000000
B2   B   0.046943619649646   0.666921048799907   0.111294058359220   1.0000000
B2   B   0.046855697660323   0.809727693955391   0.111002802693283   1.0000000
B2   B   0.190274327240612   0.953146323535680   0.111002802693283   1.0000000
B2   B   0.191488991421492   0.096879393586880   0.111353952627433   1.0000000
B2   B   0.192766730354467   0.240498344416220   0.111782265182788   1.0000000
B2   B   0.191939420284033   0.382330499141094   0.111008821437329   1.0000000
B2   B   0.190313966259978   0.524613523675627   0.107816257014757   1.0000000
B2   B   0.189616994986372   0.667349760264969   0.109713232779417   1.0000000
B2   B   0.189839405641747   0.810162615554257   0.111152281229983   1.0000000
B2   B   0.333080972397091   0.953058401546364   0.111294058359220   1.0000000
B2   B   0.333712731630741   0.096284001968533   0.111382038908034   1.0000000
B2   B   0.335957711847050   0.241324709388801   0.111236388967543   1.0000000
B2   B   0.337647778568563   0.385538149276640   0.118953420390210   1.0000000
B2   B   0.333139371566264   0.526531386532935   0.113470099038584   1.0000000
B2   B   0.331937870485512   0.668064150711486   0.108352470103662   1.0000000
B2   B   0.332652260932029   0.810385026209632   0.109713232779417   1.0000000
B2   B   0.475942650037555   0.952362285986225   0.110274409025132   1.0000000
B2   B   0.476356683167848   0.094944545751044   0.112010010050455   1.0000000
B2   B   0.477042805801194   0.237532952622534   0.111551451761334   1.0000000
B2   B   0.480596454234428   0.381335948190575   0.096630333709265   1.0000000
B2   B   0.473470634664064   0.666862649630734   0.113470099038584   1.0000000
B2   B   0.475388497521372   0.809688054936025   0.107816257014757   1.0000000
B2   B   0.618760564410151   0.951638277765247   0.109559001122826   1.0000000
B2   B   0.619239924176999   0.094542043897252   0.111102651666375   1.0000000
B2   B   0.619694169930372   0.237152565518890   0.111919423445659   1.0000000
B2   B   0.620482843800670   0.379519177395334   0.108467288929204   1.0000000
B2   B   0.618666073005428   0.519405566962570   0.096630333709265   1.0000000
B2   B   0.614463871919364   0.662354242628435   0.118953420390210   1.0000000
B2   B   0.617671522054909   0.808062600911971   0.111008821437329   1.0000000
B2   B   0.761339787647704   0.951338718490995   0.110268546411712   1.0000000
B2   B   0.762118180530683   0.094589159320805   0.110825635598760   1.0000000
B2   B   0.762505888654407   0.237496132541589   0.111308134434106   1.0000000
B2   B   0.762849455677114   0.380307851265631   0.111919423445659   1.0000000
B2   B   0.762469068573470   0.522959215395804   0.111551451761334   1.0000000
B2   B   0.758677311807202   0.664044309349949   0.111236388967543   1.0000000
B2   B   0.759503676779784   0.807235290841536   0.111782265182788   1.0000000
C2   C   0.470979951137885   0.529022070059113   0.157502563001098   1.0000000
N2   N   0.951573521662985   0.904168966077780   0.110734125426872   1.0000000
N2   N   0.952595783957989   0.047405617960016   0.110310811151357   1.0000000
N2   N   0.953159866895469   0.190428598912274   0.110590292382491   1.0000000
N2   N   0.953119986384277   0.333219306368739   0.110455498235985   1.0000000
N2   N   0.952644293600177   0.476072153490604   0.111280381306310   1.0000000
N2   N   0.951760685765715   0.618959746869468   0.111608754651074   1.0000000
N2   N   0.951365487066433   0.761586131461582   0.111055130253915   1.0000000
N2   N   0.094858080316101   0.905143321601897   0.110821741750944   1.0000000
N2   N   0.095832435840219   0.048427880255020   0.110734125426872   1.0000000
N2   N   0.096902480671795   0.191746940594289   0.110289431819572   1.0000000
N2   N   0.096491092957858   0.334027510619721   0.109809819482528   1.0000000
N2   N   0.095322649777715   0.476519565362763   0.108834321678043   1.0000000
N2   N   0.094590932751354   0.619361160908565   0.110702506663898   1.0000000
N2   N   0.094554962889717   0.762244030305418   0.111192118018101   1.0000000
N2   N   0.237757371612588   0.905446439028281   0.111192118018101   1.0000000
N2   N   0.238415270456424   0.048635914851573   0.111055130253915   1.0000000
N2   N   0.240231425523174   0.192830215532860   0.112176883992738   1.0000000
N2   N   0.241524503743344   0.336487704655054   0.113979350011054   1.0000000
N2   N   0.238417648608348   0.477428983482832   0.108302611146697   1.0000000
N2   N   0.237085822294436   0.619824735223842   0.107861742020132   1.0000000
N2   N   0.237411056966178   0.762590344951829   0.110630970343684   1.0000000
N2   N   0.380640241009433   0.905410469166645   0.110702506663898   1.0000000
N2   N   0.381041655048531   0.048240716152291   0.111608754651074   1.0000000
N2   N   0.381881810782231   0.191729080271974   0.111178388835837   1.0000000
N2   N   0.385406043904601   0.338009453595850   0.109152111475087   1.0000000
N2   N   0.383370084168494   0.482381406166347   0.128643224474522   1.0000000
N2   N   0.379197783767650   0.620803618150350   0.111098934412564   1.0000000
N2   N   0.380176666694156   0.762915579623570   0.107861742020132   1.0000000
N2   N   0.523481836554234   0.904678752140283   0.108834321678043   1.0000000
N2   N   0.523929248426393   0.047357108317828   0.111280381306310   1.0000000
N2   N   0.524421986602477   0.189879707296886   0.112652438617808   1.0000000
N2   N   0.525410634389921   0.332086538532073   0.107789348543989   1.0000000
N2   N   0.517619995750650   0.616631317749504   0.128643224474522   1.0000000
N2   N   0.522572418434165   0.761583753309651   0.108302611146697   1.0000000
N2   N   0.665973891297276   0.903510308960141   0.109809819482528   1.0000000
N2   N   0.666782095548265   0.046881415533729   0.110455498235985   1.0000000
N2   N   0.667234546896063   0.189677723515247   0.111472977316775   1.0000000
N2   N   0.667790806173287   0.332210595743709   0.111415872882528   1.0000000
N2   N   0.667914863384923   0.474590767527077   0.107789348543989   1.0000000
N2   N   0.661991948321146   0.614595358013398   0.109152111475087   1.0000000
N2   N   0.663513697261942   0.758476898174662   0.113979350011054   1.0000000
N2   N   0.808254461323710   0.903098921246204   0.110289431819572   1.0000000
N2   N   0.809572803005725   0.046841535022537   0.110590292382491   1.0000000
N2   N   0.810080822206309   0.189920579711690   0.111148350869432   1.0000000
N2   N   0.810323678402752   0.332766855020934   0.111472977316775   1.0000000
N2   N   0.810121694621112   0.475579415314520   0.112652438617808   1.0000000
N2   N   0.808272321646024   0.618119591135767   0.111178388835837   1.0000000
N2   N   0.807171186385139   0.759769976394832   0.112176883992738   1.0000000
O2   O   0.531824990525353   0.468176411391643   0.069812584108198   1.0000000


