data_1
_audit_creation_method   'vasp2cif'
_cell_length_a    17.52789999999977
_cell_length_b    17.52789999999977
_cell_length_c    15.0
_cell_angle_alpha    90.0
_cell_angle_beta    90.0
_cell_angle_gamma    119.99999999999916

_symmetry_space_group_name_H-M    'P 1'
loop_
_atom_site_label
_atom_site_type_symbol
_atom_site_fract_x
_atom_site_fract_y
_atom_site_fract_z
_atom_site_occupancy
B2   B   0.905443003434543   0.952817578401688   0.111243386005289   1.0000000
B2   B   0.904599395162284   0.095471703442738   0.111261880500311   1.0000000
B2   B   0.904355539385483   0.238525688803511   0.111348579661329   1.0000000
B2   B   0.904306228768212   0.381375031075866   0.111239542639921   1.0000000
B2   B   0.904255704983966   0.523858828341763   0.111327349168781   1.0000000
B2   B   0.904526803706441   0.666594623310149   0.111345623942808   1.0000000
B2   B   0.905801026420247   0.809955251352197   0.111362530545996   1.0000000
B2   B   0.048105901805422   0.951978999971406   0.111447991756000   1.0000000
B2   B   0.047259682311312   0.094636554192502   0.110948724339606   1.0000000
B2   B   0.047137290480143   0.237817282768240   0.110856356542582   1.0000000
B2   B   0.047824319095729   0.380980236763700   0.110902708478386   1.0000000
B2   B   0.049015590667925   0.523335350621915   0.111109389895758   1.0000000
B2   B   0.048409920895574   0.665954483846316   0.111400389073066   1.0000000
B2   B   0.048407926836786   0.808972928844156   0.111636529442874   1.0000000
B2   B   0.191111882827947   0.951685988985810   0.111507579937322   1.0000000
B2   B   0.190126437778338   0.094291722085154   0.111107572941836   1.0000000
B2   B   0.188920565992962   0.236254868502466   0.110731105590510   1.0000000
B2   B   0.190090689276093   0.380063906865931   0.110641393114424   1.0000000
B2   B   0.194489554000175   0.522639776969944   0.110613716512947   1.0000000
B2   B   0.192497803355027   0.665168257867952   0.111019322339566   1.0000000
B2   B   0.191672792276369   0.808418638804334   0.111410104975846   1.0000000
B2   B   0.334133061956334   0.951686566978212   0.111286039869873   1.0000000
B2   B   0.333488139327698   0.095579019668550   0.111224933626466   1.0000000
B2   B   0.331769209972008   0.238312106462734   0.110897666885600   1.0000000
B2   B   0.328959943997951   0.378815547923620   0.110617673457314   1.0000000
B2   B   0.342248087732555   0.518873362124868   0.110492322639811   1.0000000
B2   B   0.336681023091916   0.663414748856717   0.110634899536228   1.0000000
B2   B   0.334920753945838   0.807592732137932   0.111053429610591   1.0000000
B2   B   0.476752045690048   0.951073918948932   0.110967145493800   1.0000000
B2   B   0.476220584911471   0.095837367960028   0.111134074176369   1.0000000
B2   B   0.475574759388979   0.240716919205461   0.111106361124756   1.0000000
B2   B   0.472918326276717   0.385512252070761   0.110809104931813   1.0000000
B2   B   0.481210412628140   0.657855889633037   0.110524735894368   1.0000000
B2   B   0.477452692666964   0.805606876889800   0.110720740857621   1.0000000
B2   B   0.619105429922832   0.952268902303829   0.110676806977493   1.0000000
B2   B   0.618706815060048   0.095778434917986   0.111014675285261   1.0000000
B2   B   0.618144448843030   0.239622348682365   0.111287514692807   1.0000000
B2   B   0.616701505890800   0.383394885277574   0.111308709987035   1.0000000
B2   B   0.614617394794466   0.527201344644847   0.111002192299210   1.0000000
B2   B   0.621293273645079   0.671139620793783   0.110320165246232   1.0000000
B2   B   0.620027616883750   0.810005395687119   0.110238576577905   1.0000000
B2   B   0.762259769548897   0.952944828940126   0.110782246113089   1.0000000
B2   B   0.761561470358906   0.095733995899078   0.111218443336140   1.0000000
B2   B   0.761159190394777   0.238919833585059   0.111378995836907   1.0000000
B2   B   0.760459060954921   0.381932079868699   0.111444798963252   1.0000000
B2   B   0.759388251927511   0.524513862205141   0.111279769671328   1.0000000
B2   B   0.761804475799032   0.668329620699361   0.110887273598564   1.0000000
B2   B   0.763829922693297   0.811160381576563   0.110607801932975   1.0000000
C2   C   0.467642570291221   0.532521096395664   0.110327453820146   1.0000000
C2   C   0.514103669393258   0.486049245001887   0.110731761368771   1.0000000
N2   N   0.953009076919025   0.905004440406196   0.111433580546612   1.0000000
N2   N   0.952321349378292   0.047760019446030   0.111181535226395   1.0000000
N2   N   0.952032069227404   0.190704950526450   0.111257852248646   1.0000000
N2   N   0.952370287525962   0.333821959355516   0.111123175356393   1.0000000
N2   N   0.952984150094282   0.476561670474741   0.111219099161124   1.0000000
N2   N   0.952712094235174   0.619104401080147   0.111359711100457   1.0000000
N2   N   0.953021965128076   0.761925305505300   0.111553169993046   1.0000000
N2   N   0.095821901958139   0.904251226504765   0.111635080439405   1.0000000
N2   N   0.095079541771078   0.047076238418767   0.111100172757498   1.0000000
N2   N   0.094244256676242   0.189679550848937   0.110617207251252   1.0000000
N2   N   0.095236692758651   0.333199713038260   0.110735621017862   1.0000000
N2   N   0.097920649354348   0.476053889696300   0.110832458373599   1.0000000
N2   N   0.096846913294017   0.618458388473621   0.111218063361426   1.0000000
N2   N   0.096245794238902   0.761230932858599   0.111493954459427   1.0000000
N2   N   0.238846070921795   0.903830496440996   0.111456739351115   1.0000000
N2   N   0.238147414337432   0.047063738347874   0.111284090944900   1.0000000
N2   N   0.236849409652858   0.189503893295870   0.110889187529616   1.0000000
N2   N   0.235948929036726   0.331618844545523   0.110731189386370   1.0000000
N2   N   0.244199413860791   0.475014001336023   0.110467164844397   1.0000000
N2   N   0.241124767339143   0.617412070176643   0.110628069468055   1.0000000
N2   N   0.239625069868688   0.760457344412899   0.111168796710322   1.0000000
N2   N   0.381631648188322   0.903247134328363   0.111106409652908   1.0000000
N2   N   0.380968977383868   0.047378829676256   0.111218191536462   1.0000000
N2   N   0.380039128091298   0.191273681284534   0.111073955458075   1.0000000
N2   N   0.377351247796220   0.334349951905320   0.110637336061874   1.0000000
N2   N   0.385297726429571   0.614803122446269   0.110525396556080   1.0000000
N2   N   0.382671547337939   0.758964989392169   0.110826760733648   1.0000000
N2   N   0.524033737765610   0.902170693844339   0.110770699894558   1.0000000
N2   N   0.523524755405233   0.047108482311432   0.110978022933883   1.0000000
N2   N   0.522881754855744   0.191699701088289   0.111175034676262   1.0000000
N2   N   0.521364627716982   0.336442145866387   0.111034514660722   1.0000000
N2   N   0.525076208482370   0.755900513212658   0.110491678942526   1.0000000
N2   N   0.666880580460844   0.904858264026978   0.110348185360228   1.0000000
N2   N   0.666264914748857   0.047728732929517   0.110924346272526   1.0000000
N2   N   0.665844865625413   0.191311666261985   0.111176581796243   1.0000000
N2   N   0.665048663680093   0.335048728554604   0.111441409272625   1.0000000
N2   N   0.663680027508053   0.478753173426906   0.111313585655532   1.0000000
N2   N   0.665783120731440   0.622762394935130   0.110716928017290   1.0000000
N2   N   0.668468508390292   0.764130731087221   0.110065468613689   1.0000000
N2   N   0.810392841702312   0.905830117647001   0.110924846683260   1.0000000
N2   N   0.809386031618881   0.048061043430583   0.111159178200313   1.0000000
N2   N   0.809022325234491   0.191072209523861   0.111458071757180   1.0000000
N2   N   0.808781919800671   0.334248953397057   0.111374898024192   1.0000000
N2   N   0.808395479869488   0.477212325297355   0.111374232641556   1.0000000
N2   N   0.808839320525910   0.620050941612351   0.111072811358241   1.0000000
N2   N   0.810596079578608   0.763233406676373   0.110894650557328   1.0000000


