data_1
_audit_creation_method   'vasp2cif'
_cell_length_a    14.93631414619966
_cell_length_b    14.936314146199727
_cell_length_c    13.341276283792837
_cell_angle_alpha    90.0
_cell_angle_beta    90.0
_cell_angle_gamma    119.99999999999984

_symmetry_space_group_name_H-M    'P 1'
loop_
_atom_site_label
_atom_site_type_symbol
_atom_site_fract_x
_atom_site_fract_y
_atom_site_fract_z
_atom_site_occupancy
Sb2   Sb   0.504802925924072   0.419068129628700   0.375000000000000   1.0000000
N2   N   0.111371987880446   0.055687961051563   0.125006973329618   1.0000000
N2   N   0.611509132843091   0.555853686667389   0.122536462072275   1.0000000
N2   N   0.444773952145975   0.055727705406283   0.125001391448258   1.0000000
N2   N   0.944740083560919   0.555700584553135   0.124920284034180   1.0000000
N2   N   0.778097096342157   0.055715214837747   0.124869113045351   1.0000000
N2   N   0.111427817121859   0.722380575227594   0.625062941801301   1.0000000
N2   N   0.444773952145975   0.722379580073028   0.624998608551742   1.0000000
N2   N   0.277948370210947   0.222299561924701   0.625718528027337   1.0000000
N2   N   0.778096163130553   0.722413379960167   0.625299639823236   1.0000000
N2   N   0.611433010696977   0.222355395658498   0.625428219705503   1.0000000
N2   N   0.944717154504204   0.222355967383803   0.625126302637404   1.0000000
N2   N   0.278093958735713   0.722376005135678   0.124922443639975   1.0000000
N2   N   0.111338276203701   0.222335804768515   0.124929815128407   1.0000000
N2   N   0.444755887783547   0.222390314122715   0.124315279512757   1.0000000
N2   N   0.611433010696977   0.722410948371808   0.124571780294497   1.0000000
N2   N   0.944740083560919   0.722372832341121   0.124920284034180   1.0000000
N2   N   0.778099753229582   0.222361319634997   0.124874730160150   1.0000000
N2   N   0.111421054752237   0.889052591096842   0.625045568473396   1.0000000
N2   N   0.444780822161638   0.889057077747482   0.625064538581992   1.0000000
N2   N   0.277948370210947   0.388982141619575   0.625718528027337   1.0000000
N2   N   0.611509132843091   0.388988779509030   0.627463537927725   1.0000000
N2   N   0.778099753229582   0.889071766927915   0.625125269839850   1.0000000
N2   N   0.944736559058472   0.389028970841440   0.625074207719774   1.0000000
N2   N   0.111371987880446   0.389017360162211   0.125006973329618   1.0000000
N2   N   0.278093958735713   0.889051286933363   0.124922443639975   1.0000000
N2   N   0.611431908609950   0.889057888087601   0.124842542889947   1.0000000
N2   N   0.444409531738487   0.388871432535907   0.121557296335805   1.0000000
N2   N   0.944736559058472   0.889040921550361   0.124925792280225   1.0000000
N2   N   0.778096163130553   0.389016116503715   0.124700360176765   1.0000000
N2   N   0.278076782940274   0.555695648499449   0.625051617287347   1.0000000
N2   N   0.111371987880446   0.055687961051563   0.624993026670382   1.0000000
N2   N   0.611509132843091   0.555853686667389   0.627463537927725   1.0000000
N2   N   0.444773952145975   0.055727705406283   0.624998608551742   1.0000000
N2   N   0.944740083560919   0.555700584553135   0.625079715965819   1.0000000
N2   N   0.111421054752237   0.555701796988725   0.124954431526604   1.0000000
N2   N   0.778097096342157   0.055715214837747   0.625130886954650   1.0000000
N2   N   0.278076782940274   0.055714467774162   0.124948382712653   1.0000000
N2   N   0.444755887783547   0.555698906994168   0.124315279512757   1.0000000
N2   N   0.778078981629824   0.555706157481580   0.124605966729066   1.0000000
N2   N   0.611431908609950   0.055707353855677   0.124842542889947   1.0000000
N2   N   0.444755887783547   0.555698906994168   0.625684720487242   1.0000000
N2   N   0.944717154504204   0.055694520453736   0.124873697362596   1.0000000
N2   N   0.278093958735713   0.722376005135678   0.625077556360025   1.0000000
N2   N   0.111338276203701   0.222335804768515   0.625070184871592   1.0000000
N2   N   0.444755887783547   0.222390314122715   0.625684720487242   1.0000000
N2   N   0.611433010696977   0.722410948371808   0.625428219705503   1.0000000
N2   N   0.944740083560919   0.722372832341121   0.625079715965819   1.0000000
N2   N   0.778099753229582   0.222361319634997   0.625125269839850   1.0000000
N2   N   0.111427817121859   0.722380575227594   0.124937058198699   1.0000000
N2   N   0.444773952145975   0.722379580073028   0.125001391448258   1.0000000
N2   N   0.277948370210947   0.222299561924701   0.124281471972663   1.0000000
N2   N   0.778096163130553   0.722413379960167   0.124700360176765   1.0000000
N2   N   0.611433010696977   0.222355395658498   0.124571780294497   1.0000000
N2   N   0.944717154504204   0.222355967383803   0.124873697362596   1.0000000
N2   N   0.111371987880446   0.389017360162211   0.624993026670382   1.0000000
N2   N   0.278093958735713   0.889051286933363   0.625077556360025   1.0000000
N2   N   0.611431908609950   0.889057888087601   0.625157457110054   1.0000000
N2   N   0.444409531738487   0.388871432535907   0.628442703664194   1.0000000
N2   N   0.944736559058472   0.889040921550361   0.625074207719774   1.0000000
N2   N   0.111421054752237   0.889052591096842   0.124954431526604   1.0000000
N2   N   0.778096163130553   0.389016116503715   0.625299639823236   1.0000000
N2   N   0.444780822161638   0.889057077747482   0.124935461418009   1.0000000
N2   N   0.277948370210947   0.388982141619575   0.124281471972663   1.0000000
N2   N   0.278076782940274   0.555695648499449   0.124948382712653   1.0000000
N2   N   0.611509132843091   0.388988779509030   0.122536462072275   1.0000000
N2   N   0.778099753229582   0.889071766927915   0.124874730160150   1.0000000
N2   N   0.944736559058472   0.389028970841440   0.124925792280225   1.0000000
N2   N   0.111421054752237   0.555701796988725   0.625045568473396   1.0000000
N2   N   0.278076782940274   0.055714467774162   0.625051617287347   1.0000000
N2   N   0.778078981629824   0.555706157481580   0.625394033270934   1.0000000
N2   N   0.611431908609950   0.055707353855677   0.625157457110054   1.0000000
N2   N   0.944717154504204   0.055694520453736   0.625126302637404   1.0000000
N2   N   0.057420014452857   0.112270472070245   0.375000000000000   1.0000000
N2   N   0.554043309059999   0.624224076178453   0.375000000000000   1.0000000
N2   N   0.385600800663901   0.102486260760329   0.375000000000000   1.0000000
N2   N   0.883784680274852   0.608559006804097   0.375000000000000   1.0000000
N2   N   0.722985024638223   0.110149540654094   0.375000000000000   1.0000000
N2   N   0.055196870924648   0.777601327405562   0.875000000000000   1.0000000
N2   N   0.388514556201259   0.777589966182284   0.875000000000000   1.0000000
N2   N   0.221825417682563   0.277579375507950   0.875000000000000   1.0000000
N2   N   0.721849992303666   0.777589341788164   0.875000000000000   1.0000000
N2   N   0.555159847342000   0.277583938040967   0.875000000000000   1.0000000
N2   N   0.888490325349301   0.277580970901226   0.875000000000000   1.0000000
N2   N   0.218223693108637   0.775778513220986   0.375000000000000   1.0000000
N2   N   0.057420014452857   0.278482875715948   0.375000000000000   1.0000000
N2   N   0.388632796010351   0.267154201006085   0.375000000000000   1.0000000
N2   N   0.554236924946589   0.783214037562410   0.375000000000000   1.0000000
N2   N   0.887501339287581   0.778101882112038   0.375000000000000   1.0000000
N2   N   0.722704727072199   0.274495556213255   0.375000000000000   1.0000000
N2   N   0.055186724206207   0.944263834459000   0.875000000000000   1.0000000
N2   N   0.388514556201259   0.944257923352311   0.875000000000000   1.0000000
N2   N   0.221823210884915   0.444241782397652   0.875000000000000   1.0000000
N2   N   0.555179537361859   0.444256435347594   0.875000000000000   1.0000000
N2   N   0.721839974834693   0.944252187518116   0.875000000000000   1.0000000
N2   N   0.888503633635524   0.444254752534631   0.875000000000000   1.0000000
N2   N   0.054458978996047   0.444095783317801   0.375000000000000   1.0000000
N2   N   0.218655834665611   0.940848549044356   0.375000000000000   1.0000000
N2   N   0.554310656141671   0.943821994737500   0.375000000000000   1.0000000
N2   N   0.388632796010351   0.454811928337601   0.375000000000000   1.0000000
N2   N   0.889990741889049   0.946099740939024   0.375000000000000   1.0000000
N2   N   0.719924946259768   0.440019998560518   0.375000000000000   1.0000000
N2   N   0.221823553869702   0.610906908695220   0.875000000000000   1.0000000
N2   N   0.055180990300176   0.110925545302341   0.875000000000000   1.0000000
N2   N   0.555159847342000   0.610909242634371   0.875000000000000   1.0000000
N2   N   0.388515284570960   0.110919513530028   0.875000000000000   1.0000000
N2   N   0.888516960541699   0.610925146937521   0.875000000000000   1.0000000
N2   N   0.051592252551167   0.609517646172548   0.375000000000000   1.0000000
N2   N   0.721839974834693   0.110921120649912   0.875000000000000   1.0000000
N2   N   0.221525769127271   0.108924870609523   0.375000000000000   1.0000000
N2   N   0.385600800663901   0.616447873236914   0.375000000000000   1.0000000
N2   N   0.719924946259768   0.613238281032586   0.375000000000000   1.0000000
N2   N   0.554236924946589   0.104356220717515   0.375000000000000   1.0000000
N2   N   0.388515284570960   0.610929104374275   0.875000000000000   1.0000000
N2   N   0.890600544020081   0.111966938676712   0.375000000000000   1.0000000
N2   N   0.221825612137398   0.777579472735367   0.875000000000000   1.0000000
N2   N   0.055180990300176   0.277588778331170   0.875000000000000   1.0000000
N2   N   0.388520043243632   0.277581453262267   0.875000000000000   1.0000000
N2   N   0.555150482540072   0.777570518824274   0.875000000000000   1.0000000
N2   N   0.888503633635524   0.777582214434229   0.875000000000000   1.0000000
N2   N   0.721849992303666   0.277593983848837   0.875000000000000   1.0000000
N2   N   0.051592252551167   0.775407939711955   0.375000000000000   1.0000000
N2   N   0.385721365962423   0.778436187509339   0.375000000000000   1.0000000
N2   N   0.225804324714173   0.279568829023755   0.375000000000000   1.0000000
N2   N   0.722704727072199   0.781542504192280   0.375000000000000   1.0000000
N2   N   0.554043309059999   0.263152566214881   0.375000000000000   1.0000000
N2   N   0.889990741889049   0.277224334283360   0.375000000000000   1.0000000
N2   N   0.055186724206207   0.444256223080535   0.875000000000000   1.0000000
N2   N   0.221823553869702   0.944249978507817   0.875000000000000   1.0000000
N2   N   0.555147390514587   0.944240361923957   0.875000000000000   1.0000000
N2   N   0.388520043243632   0.444271923314701   0.875000000000000   1.0000000
N2   N   0.888490325349301   0.944242687781410   0.875000000000000   1.0000000
N2   N   0.054458978996047   0.943696529011576   0.375000000000000   1.0000000
N2   N   0.721875457505171   0.444274908674971   0.875000000000000   1.0000000
N2   N   0.385721365962423   0.940618511786420   0.375000000000000   1.0000000
N2   N   0.221525769127271   0.445934231851083   0.375000000000000   1.0000000
N2   N   0.218655834665611   0.611140618954591   0.375000000000000   1.0000000
N2   N   0.722985024638223   0.946168817317464   0.375000000000000   1.0000000
N2   N   0.887501339287581   0.442732790508877   0.375000000000000   1.0000000
N2   N   0.055196870924648   0.610928876852422   0.875000000000000   1.0000000
N2   N   0.221823210884915   0.110914761820599   0.875000000000000   1.0000000
N2   N   0.721875457505171   0.610933882163534   0.875000000000000   1.0000000
N2   N   0.555150482540072   0.110913297049134   0.875000000000000   1.0000000
N2   N   0.888486369521271   0.110909851427307   0.875000000000000   1.0000000
B2   B   0.111358499532022   0.055084101069255   0.375000000000000   1.0000000
B2   B   0.609500364977640   0.571220224080007   0.375000000000000   1.0000000
B2   B   0.442733667705332   0.050234675948098   0.375000000000000   1.0000000
B2   B   0.940355200988315   0.553709657830222   0.375000000000000   1.0000000
B2   B   0.779515399779406   0.056424366556371   0.375000000000000   1.0000000
B2   B   0.110741622208443   0.722037477770886   0.875000000000000   1.0000000
B2   B   0.444068543430362   0.721997817463735   0.875000000000000   1.0000000
B2   B   0.277338594087243   0.222015052550210   0.875000000000000   1.0000000
B2   B   0.777379691852700   0.721982098251427   0.875000000000000   1.0000000
B2   B   0.610572609763440   0.222004435283902   0.875000000000000   1.0000000
B2   B   0.943938744392569   0.221973312801035   0.875000000000000   1.0000000
B2   B   0.274542766788042   0.721667109550247   0.375000000000000   1.0000000
B2   B   0.114852939138137   0.224093136235732   0.375000000000000   1.0000000
B2   B   0.441905788168533   0.212007303782585   0.375000000000000   1.0000000
B2   B   0.611395534194563   0.731177326930091   0.375000000000000   1.0000000
B2   B   0.940355200988315   0.719978876491429   0.375000000000000   1.0000000
B2   B   0.779084555717286   0.220944056116262   0.375000000000000   1.0000000
B2   B   0.110750490861314   0.888719095399351   0.875000000000000   1.0000000
B2   B   0.444063709437904   0.888698521385616   0.875000000000000   1.0000000
B2   B   0.277338594087243   0.388656874870361   0.875000000000000   1.0000000
B2   B   0.610579216179116   0.388674088003302   0.875000000000000   1.0000000
B2   B   0.777391924173620   0.888668927290259   0.875000000000000   1.0000000
B2   B   0.943922914097452   0.388639646886661   0.875000000000000   1.0000000
B2   B   0.111358499532022   0.389607731796095   0.375000000000000   1.0000000
B2   B   0.274542766788042   0.886208990571123   0.375000000000000   1.0000000
B2   B   0.611520581220977   0.891830718340430   0.375000000000000   1.0000000
B2   B   0.943824138207273   0.889058925000109   0.375000000000000   1.0000000
B2   B   0.776708046298369   0.386122525478445   0.375000000000000   1.0000000
B2   B   0.277288809742334   0.555291212890502   0.875000000000000   1.0000000
B2   B   0.110775868788176   0.055400064300568   0.875000000000000   1.0000000
B2   B   0.610579216179116   0.555238461509143   0.875000000000000   1.0000000
B2   B   0.444068543430362   0.055404059299963   0.875000000000000   1.0000000
B2   B   0.943913239450303   0.555298501783333   0.875000000000000   1.0000000
B2   B   0.108024521627141   0.554903531398448   0.375000000000000   1.0000000
B2   B   0.777399053629341   0.055366193481338   0.875000000000000   1.0000000
B2   B   0.275190530667482   0.051577160428983   0.375000000000000   1.0000000
B2   B   0.441905788168534   0.563231817719284   0.375000000000000   1.0000000
B2   B   0.771311480011969   0.552322406672653   0.375000000000000   1.0000000
B2   B   0.611520581220977   0.053023196213876   0.375000000000000   1.0000000
B2   B   0.444097715321071   0.555329969665223   0.875000000000000   1.0000000
B2   B   0.946542300913794   0.057053945662765   0.375000000000000   1.0000000
B2   B   0.277261058158727   0.721951915751305   0.875000000000000   1.0000000
B2   B   0.110795014747897   0.222064174040613   0.875000000000000   1.0000000
B2   B   0.444097715321071   0.222101078989183   0.875000000000000   1.0000000
B2   B   0.610572609763440   0.721901507812867   0.875000000000000   1.0000000
B2   B   0.943913239450303   0.721948071000305   0.875000000000000   1.0000000
B2   B   0.777391924173620   0.222056330216689   0.875000000000000   1.0000000
B2   B   0.107227147070375   0.720280240201851   0.375000000000000   1.0000000
B2   B   0.442733667705333   0.725832325090571   0.375000000000000   1.0000000
B2   B   0.280546920758279   0.221405167912345   0.375000000000000   1.0000000
B2   B   0.776708046298369   0.723918854153252   0.375000000000000   1.0000000
B2   B   0.611395534194563   0.213551540597801   0.375000000000000   1.0000000
B2   B   0.946542300913794   0.222821688584363   0.375000000000000   1.0000000
B2   B   0.110775868788176   0.388709137820937   0.875000000000000   1.0000000
B2   B   0.277261058158727   0.888642475740752   0.875000000000000   1.0000000
B2   B   0.610573503653229   0.888600162245852   0.875000000000000   1.0000000
B2   B   0.444146415530462   0.388739874431896   0.875000000000000   1.0000000
B2   B   0.943922914097452   0.888616600544119   0.875000000000000   1.0000000
B2   B   0.108024521627141   0.886454323562021   0.375000000000000   1.0000000
B2   B   0.777379691852700   0.388730926934601   0.875000000000000   1.0000000
B2   B   0.442768854247176   0.888051093790252   0.375000000000000   1.0000000
B2   B   0.280546920758279   0.392475086179261   0.375000000000000   1.0000000
B2   B   0.275190530667482   0.556946703571835   0.375000000000000   1.0000000
B2   B   0.609500364977640   0.371613474230963   0.375000000000000   1.0000000
B2   B   0.779084555717286   0.891473832934353   0.375000000000000   1.0000000
B2   B   0.943824138207273   0.388098546540492   0.375000000000000   1.0000000
B2   B   0.110750490861314   0.555364728795292   0.875000000000000   1.0000000
B2   B   0.277288809742334   0.055330930185166   0.875000000000000   1.0000000
B2   B   0.777378055368058   0.555355694350697   0.875000000000000   1.0000000
B2   B   0.610573503653229   0.055306674740705   0.875000000000000   1.0000000
B2   B   0.943938744392569   0.055298764924870   0.875000000000000   1.0000000
B2   B   0.055966857387872   0.111338350582333   0.125059840863178   1.0000000
B2   B   0.555878850508181   0.611066523607183   0.124252945579862   1.0000000
B2   B   0.389354251477115   0.111514248297759   0.125081029369268   1.0000000
B2   B   0.888991847919721   0.611162590626532   0.124997345813649   1.0000000
B2   B   0.722611510525620   0.111326849035568   0.124924734219350   1.0000000
B2   B   0.055904513256943   0.777966635560267   0.625009497569452   1.0000000
B2   B   0.389326985288728   0.777942036541604   0.624971109892494   1.0000000
B2   B   0.222565680934207   0.277949507133771   0.625184920214300   1.0000000
B2   B   0.722543558263250   0.777886392758492   0.625143366248417   1.0000000
B2   B   0.555878850508181   0.278145660234334   0.625747054420137   1.0000000
B2   B   0.889163078960665   0.277918940157082   0.625045665157784   1.0000000
B2   B   0.222534833718864   0.777934083526100   0.124948741356631   1.0000000
B2   B   0.055966857387872   0.277961840138874   0.125059840863178   1.0000000
B2   B   0.389263955342566   0.278101479406288   0.123988461743618   1.0000000
B2   B   0.555873323474316   0.777841298505132   0.124953085864487   1.0000000
B2   B   0.889083213091843   0.777864739046205   0.124961486894081   1.0000000
B2   B   0.722543558263250   0.277990498838094   0.124856633751583   1.0000000
B2   B   0.055946709551654   0.944673687918525   0.624946082581479   1.0000000
B2   B   0.389326985288728   0.944718282080461   0.624971109892494   1.0000000
B2   B   0.222561484243742   0.444521971238761   0.624961853345756   1.0000000
B2   B   0.555711033279007   0.444522183306168   0.624616158937011   1.0000000
B2   B   0.722611510525620   0.944617994823387   0.625075265780651   1.0000000
B2   B   0.889083213091843   0.444551807378973   0.625038513105919   1.0000000
B2   B   0.055946709551654   0.444606354966456   0.125053917418521   1.0000000
B2   B   0.222561356526913   0.944695117297068   0.125032993653586   1.0000000
B2   B   0.555882660731028   0.944607997032178   0.124930152015305   1.0000000
B2   B   0.389263955342566   0.444495809269614   0.123988461743618   1.0000000
B2   B   0.889163078960665   0.944577472136919   0.124954334842217   1.0000000
B2   B   0.722328089086991   0.444524716124776   0.124251115241039   1.0000000
B2   B   0.222561356526913   0.611199572563181   0.624967006346413   1.0000000
B2   B   0.055966857387872   0.111338350582333   0.624940159136823   1.0000000
B2   B   0.555878850508181   0.611066523607183   0.625747054420137   1.0000000
B2   B   0.389354251477115   0.111514248297759   0.624918970630731   1.0000000
B2   B   0.888991847919721   0.611162590626532   0.625002654186351   1.0000000
B2   B   0.055904513256943   0.611271211030012   0.124990502430549   1.0000000
B2   B   0.722611510525620   0.111326849035568   0.625075265780651   1.0000000
B2   B   0.222561484243742   0.111372846338317   0.125038146654244   1.0000000
B2   B   0.389354251477115   0.611173336512698   0.125081029369268   1.0000000
B2   B   0.722328089086991   0.611136706295550   0.124251115241039   1.0000000
B2   B   0.555873323474316   0.111365358302519   0.124953085864487   1.0000000
B2   B   0.389354251477115   0.611173336512698   0.624918970630731   1.0000000
B2   B   0.889190629735477   0.111261981534410   0.124927602852640   1.0000000
B2   B   0.222534833718864   0.777934083526100   0.625051258643369   1.0000000
B2   B   0.055966857387872   0.277961840138874   0.624940159136823   1.0000000
B2   B   0.389263955342566   0.278101479406288   0.626011538256381   1.0000000
B2   B   0.555873323474316   0.777841298505132   0.625046914135512   1.0000000
B2   B   0.889083213091843   0.777864739046205   0.625038513105919   1.0000000
B2   B   0.722543558263250   0.277990498838094   0.625143366248417   1.0000000
B2   B   0.055904513256943   0.777966635560267   0.124990502430549   1.0000000
B2   B   0.389326985288728   0.777942036541604   0.125028890107505   1.0000000
B2   B   0.222565680934207   0.277949507133771   0.124815079785700   1.0000000
B2   B   0.722543558263250   0.777886392758492   0.124856633751583   1.0000000
B2   B   0.555878850508181   0.278145660234334   0.124252945579862   1.0000000
B2   B   0.889163078960665   0.277918940157082   0.124954334842217   1.0000000
B2   B   0.055946709551654   0.444606354966456   0.624946082581479   1.0000000
B2   B   0.222561356526913   0.944695117297068   0.624967006346413   1.0000000
B2   B   0.555882660731028   0.944607997032178   0.625069847984694   1.0000000
B2   B   0.389263955342566   0.444495809269614   0.626011538256381   1.0000000
B2   B   0.889163078960665   0.944577472136919   0.625045665157784   1.0000000
B2   B   0.055946709551654   0.944673687918525   0.125053917418521   1.0000000
B2   B   0.722328089086991   0.444524716124776   0.625748884758960   1.0000000
B2   B   0.389326985288728   0.944718282080461   0.125028890107505   1.0000000
B2   B   0.222561484243742   0.444521971238761   0.125038146654244   1.0000000
B2   B   0.222561356526913   0.611199572563181   0.125032993653586   1.0000000
B2   B   0.555711033279008   0.444522183306168   0.125383841062989   1.0000000
B2   B   0.722611510525620   0.944617994823387   0.124924734219350   1.0000000
B2   B   0.889083213091843   0.444551807378973   0.124961486894081   1.0000000
B2   B   0.055904513256943   0.611271211030012   0.625009497569452   1.0000000
B2   B   0.222561484243742   0.111372846338316   0.624961853345756   1.0000000
B2   B   0.722328089086991   0.611136706295550   0.625748884758960   1.0000000
B2   B   0.555873323474316   0.111365358302519   0.625046914135512   1.0000000
B2   B   0.889190629735477   0.111261981534410   0.625072397147360   1.0000000


