data_1
_audit_creation_method   'vasp2cif'
_cell_length_a    17.52789999999977
_cell_length_b    17.52789999999977
_cell_length_c    15.0
_cell_angle_alpha    90.0
_cell_angle_beta    90.0
_cell_angle_gamma    119.99999999999916

_symmetry_space_group_name_H-M    'P 1'
loop_
_atom_site_label
_atom_site_type_symbol
_atom_site_fract_x
_atom_site_fract_y
_atom_site_fract_z
_atom_site_occupancy
Al2   Al   0.494519624871354   0.505481777045642   0.111020223969890   1.0000000
B2   B   0.905959923712192   0.953145613305267   0.111017995336796   1.0000000
B2   B   0.904607089276083   0.095394931919913   0.111035025119777   1.0000000
B2   B   0.904125484845196   0.238136192434343   0.111044192077779   1.0000000
B2   B   0.904159995999773   0.380932698283286   0.110996388396480   1.0000000
B2   B   0.905045786149877   0.523758755580801   0.111008662532584   1.0000000
B2   B   0.906534804372892   0.666995492368662   0.111078149438003   1.0000000
B2   B   0.907439617724678   0.810968959675303   0.111047608995864   1.0000000
B2   B   0.048284079753727   0.951717941442277   0.111012319380922   1.0000000
B2   B   0.046856407890736   0.094042097483805   0.111017995336796   1.0000000
B2   B   0.046474590836997   0.237164628248462   0.110993711040221   1.0000000
B2   B   0.046872875538441   0.380267677283513   0.111008290690678   1.0000000
B2   B   0.047962767514227   0.523139335363309   0.111005049860846   1.0000000
B2   B   0.048879225665663   0.666018654217348   0.111054193365070   1.0000000
B2   B   0.048981782729211   0.809010768903389   0.111057210882114   1.0000000
B2   B   0.190991252292614   0.951020238466792   0.111057210882114   1.0000000
B2   B   0.189033061520701   0.092562403471318   0.111047608995864   1.0000000
B2   B   0.187661011408638   0.234842912227779   0.111000585608779   1.0000000
B2   B   0.188873121853917   0.379074553461863   0.110989962578332   1.0000000
B2   B   0.190891758415603   0.522359462541650   0.111039871751666   1.0000000
B2   B   0.191907228160663   0.665393051975859   0.111022639199466   1.0000000
B2   B   0.191658483693615   0.808343537502389   0.111018066986777   1.0000000
B2   B   0.333983366979650   0.951122795530339   0.111054193365070   1.0000000
B2   B   0.333006528828336   0.093467216823105   0.111078149438003   1.0000000
B2   B   0.329330945667274   0.232983558565407   0.111014728284590   1.0000000
B2   B   0.328081736288838   0.375754778748802   0.111002514912071   1.0000000
B2   B   0.334052428865331   0.520201900571114   0.111064303523828   1.0000000
B2   B   0.335422379474023   0.664579641722975   0.111046617409654   1.0000000
B2   B   0.334608969221139   0.808094793035340   0.111022639199466   1.0000000
B2   B   0.476862685833688   0.952039253681778   0.111005049860846   1.0000000
B2   B   0.476243265616196   0.094956235046120   0.111008662532584   1.0000000
B2   B   0.475238667979062   0.237678617093808   0.111040694407510   1.0000000
B2   B   0.468632727345529   0.375528713889720   0.111128305807920   1.0000000
B2   B   0.479800120625885   0.665949592331666   0.111064303523828   1.0000000
B2   B   0.477642558655350   0.809110262780399   0.111039871751666   1.0000000
B2   B   0.619734343912490   0.953129145657561   0.111008290690678   1.0000000
B2   B   0.619069322912717   0.095842025196222   0.110996388396480   1.0000000
B2   B   0.618495639586824   0.238997616186562   0.111006412244720   1.0000000
B2   B   0.617371596606506   0.382630424589497   0.111031398821760   1.0000000
B2   B   0.624473307306284   0.531369293851470   0.111128305807920   1.0000000
B2   B   0.624247242447201   0.671920284908161   0.111002514912071   1.0000000
B2   B   0.620927467734141   0.811128899342085   0.110989962578332   1.0000000
B2   B   0.762837392947541   0.953527430359007   0.110993711040221   1.0000000
B2   B   0.761865828761662   0.095876536350800   0.111044192077779   1.0000000
B2   B   0.761376232026023   0.238625789169979   0.111038703150332   1.0000000
B2   B   0.761004405009442   0.381506381609180   0.111006412244720   1.0000000
B2   B   0.762323404102195   0.524763353217937   0.111040694407510   1.0000000
B2   B   0.767018462630596   0.670671075529724   0.111014728284590   1.0000000
B2   B   0.765159108968224   0.812341009787366   0.111000585608779   1.0000000
N2   N   0.953921506003661   0.905639797467913   0.110999776383156   1.0000000
N2   N   0.952260548516385   0.047740853401622   0.111006091990033   1.0000000
N2   N   0.951457296655100   0.190266641955090   0.111013317567788   1.0000000
N2   N   0.951569409870933   0.333133684176109   0.110995158932213   1.0000000
N2   N   0.952561159280422   0.476014055392687   0.110966664365991   1.0000000
N2   N   0.953819775512992   0.618983087665242   0.111050591806996   1.0000000
N2   N   0.954336447434165   0.762344835324562   0.111059027906110   1.0000000
N2   N   0.096023029815304   0.903978372102695   0.111013642343071   1.0000000
N2   N   0.094361604450085   0.046079895914344   0.110999776383156   1.0000000
N2   N   0.092936744822113   0.188421194810442   0.110987224593662   1.0000000
N2   N   0.093506368614959   0.332048699830006   0.110971265001109   1.0000000
N2   N   0.095125707660765   0.475360102980186   0.111002953567410   1.0000000
N2   N   0.096357662256678   0.618323030775163   0.111012933706182   1.0000000
N2   N   0.096535714247858   0.761203703269161   0.111025707910573   1.0000000
N2   N   0.238797698648845   0.903465687670140   0.111025707910573   1.0000000
N2   N   0.237656566593444   0.045664954483842   0.111059027906110   1.0000000
N2   N   0.234517944787546   0.186276443418332   0.111000964862306   1.0000000
N2   N   0.233266590748537   0.328805340060148   0.110970379706964   1.0000000
N2   N   0.237280451613566   0.474273986001059   0.111025751112012   1.0000000
N2   N   0.239329820320952   0.617789171915373   0.111024604863198   1.0000000
N2   N   0.239261415370421   0.760739986547585   0.110997007885101   1.0000000
N2   N   0.381678371142835   0.903643739661320   0.111012933706182   1.0000000
N2   N   0.381018314252757   0.046181626405014   0.111050591806996   1.0000000
N2   N   0.379559012922464   0.187772124486901   0.111033849391711   1.0000000
N2   N   0.373751814462014   0.325521093986961   0.111005778326287   1.0000000
N2   N   0.375701408522240   0.468760167288296   0.110993497692192   1.0000000
N2   N   0.382879550193622   0.617121851724376   0.111071573358502   1.0000000
N2   N   0.382212230002626   0.760671581597054   0.111024604863198   1.0000000
N2   N   0.524641298936811   0.904875694257234   0.111002953567410   1.0000000
N2   N   0.523987346524309   0.047440242637584   0.110966664365991   1.0000000
N2   N   0.523311823972508   0.190072735178014   0.110996769529893   1.0000000
N2   N   0.521680858574112   0.332566482911289   0.111050396561826   1.0000000
N2   N   0.531241234628701   0.624299993395757   0.110993497692192   1.0000000
N2   N   0.525727415915938   0.762720950304440   0.111025751112012   1.0000000
N2   N   0.667952702086992   0.906495033303039   0.110971265001109   1.0000000
N2   N   0.666867717740888   0.048431992047072   0.110995158932213   1.0000000
N2   N   0.666295076827707   0.191106738092896   0.110998457829751   1.0000000
N2   N   0.665715519609312   0.334285882307684   0.110986076029849   1.0000000
N2   N   0.667434919005708   0.478320543342885   0.111050396561826   1.0000000
N2   N   0.674480307930036   0.626249587455984   0.111005778326287   1.0000000
N2   N   0.671196061856849   0.766734811169468   0.110970379706964   1.0000000
N2   N   0.811580207107557   0.907064657095886   0.110987224593662   1.0000000
N2   N   0.809734759962909   0.048544105262905   0.111013317567788   1.0000000
N2   N   0.809053561452607   0.190947840465393   0.111046014771025   1.0000000
N2   N   0.808894663825102   0.333706325089289   0.110998457829751   1.0000000
N2   N   0.809928666739986   0.476689577944488   0.110996769529893   1.0000000
N2   N   0.812229277431098   0.620442388995534   0.111033849391711   1.0000000
N2   N   0.813724958499667   0.765483457130460   0.111000964862306   1.0000000


