data_1
_audit_creation_method   'vasp2cif'
_cell_length_a    17.52789999999977
_cell_length_b    17.52789999999977
_cell_length_c    15.0
_cell_angle_alpha    90.0
_cell_angle_beta    90.0
_cell_angle_gamma    119.99999999999916

_symmetry_space_group_name_H-M    'P 1'
loop_
_atom_site_label
_atom_site_type_symbol
_atom_site_fract_x
_atom_site_fract_y
_atom_site_fract_z
_atom_site_occupancy
Sb2   Sb   0.475692507543147   0.521306853845154   0.239977315970041   1.0000000
B2   B   0.904818766639542   0.952519619682508   0.103767102689358   1.0000000
B2   B   0.904817835984402   0.095411380227201   0.102172057705692   1.0000000
B2   B   0.904804141183934   0.238300379512890   0.102315393581230   1.0000000
B2   B   0.904838471783687   0.381141361100720   0.103527061831030   1.0000000
B2   B   0.904998298062237   0.523964674667269   0.104889776000490   1.0000000
B2   B   0.904822426339017   0.666819425653838   0.106566573651043   1.0000000
B2   B   0.904691815294406   0.809538030739400   0.106323137624173   1.0000000
B2   B   0.047458916528699   0.952125009388328   0.105539730684122   1.0000000
B2   B   0.047361823235850   0.094930338997709   0.104260637852656   1.0000000
B2   B   0.047511436524082   0.238074927706478   0.104292618946587   1.0000000
B2   B   0.047596059801149   0.381066726788139   0.105678602663442   1.0000000
B2   B   0.047735693673920   0.523879187837457   0.106467676312923   1.0000000
B2   B   0.047731572325223   0.666628565552697   0.106420388778590   1.0000000
B2   B   0.047590137547315   0.809373089142497   0.106401835872051   1.0000000
B2   B   0.190280155305181   0.951951034675979   0.106434501113263   1.0000000
B2   B   0.190140828387943   0.094690008163297   0.106287277275515   1.0000000
B2   B   0.189707972362111   0.237241879161653   0.107292267831881   1.0000000
B2   B   0.190145880607282   0.380918420280784   0.110373512888841   1.0000000
B2   B   0.190474820094463   0.523889002758309   0.111392320928711   1.0000000
B2   B   0.190718362991504   0.666595075856418   0.109726981614616   1.0000000
B2   B   0.190478968927545   0.809285949323299   0.107325942305781   1.0000000
B2   B   0.333203732820237   0.951987816125756   0.106364814888226   1.0000000
B2   B   0.332943855318781   0.094521525549959   0.106424758607170   1.0000000
B2   B   0.332614635426937   0.237174853415555   0.110904907483292   1.0000000
B2   B   0.331236445528160   0.379716751399248   0.121745192145832   1.0000000
B2   B   0.332992910242174   0.523629229987067   0.125105182747983   1.0000000
B2   B   0.333831786632588   0.666638148673964   0.118109430135712   1.0000000
B2   B   0.333414622738981   0.809349463966826   0.109735783099236   1.0000000
B2   B   0.476178569224174   0.952432731728394   0.106010845504488   1.0000000
B2   B   0.476003138076003   0.094770908926633   0.104751898868284   1.0000000
B2   B   0.475576472502688   0.236667759566851   0.108279587804693   1.0000000
B2   B   0.474263711943970   0.376692604604497   0.124515237709606   1.0000000
B2   B   0.477930183370954   0.669210115982628   0.130899181366367   1.0000000
B2   B   0.476404299319443   0.810173439143655   0.111368838959967   1.0000000
B2   B   0.619176071062872   0.952886222337059   0.104983954125915   1.0000000
B2   B   0.619036579935495   0.095390024405677   0.103198147363487   1.0000000
B2   B   0.618910757440879   0.237971851868776   0.103946193622048   1.0000000
B2   B   0.619129262138926   0.380767264447147   0.110643813546474   1.0000000
B2   B   0.622102429808274   0.525588605191285   0.125393819214516   1.0000000
B2   B   0.619394986099607   0.669703845954733   0.128840717174292   1.0000000
B2   B   0.619402340706364   0.810661632344076   0.111362861802591   1.0000000
B2   B   0.762079855624123   0.952859609775132   0.103541201002450   1.0000000
B2   B   0.761988216563036   0.095547998532013   0.101875941540940   1.0000000
B2   B   0.761942242741478   0.238305247260120   0.102165849151446   1.0000000
B2   B   0.762043376776347   0.381179654352001   0.103978679801681   1.0000000
B2   B   0.762618079024157   0.524269901087422   0.108696887812800   1.0000000
B2   B   0.761814190406759   0.667179761432486   0.112990178601499   1.0000000
B2   B   0.762190681304656   0.810269797224753   0.107440425487932   1.0000000
N2   N   0.952318516699730   0.904704064110113   0.105005642761717   1.0000000
N2   N   0.952333776321577   0.047652212430583   0.103084107219714   1.0000000
N2   N   0.952357251473813   0.190629280399811   0.102438314253672   1.0000000
N2   N   0.952338498035317   0.333503965740125   0.103508779500474   1.0000000
N2   N   0.952425277703487   0.476308078535988   0.104626162450612   1.0000000
N2   N   0.952350497442914   0.619098484974464   0.105634095423707   1.0000000
N2   N   0.952328260491294   0.761867931778936   0.106390834982922   1.0000000
N2   N   0.095108556911066   0.904515703687804   0.106363331802073   1.0000000
N2   N   0.095022397497705   0.047297372532208   0.105344820106414   1.0000000
N2   N   0.094778048591447   0.190032232444799   0.104684300676126   1.0000000
N2   N   0.095018658705657   0.333289784390831   0.106234407666424   1.0000000
N2   N   0.095182269759460   0.476231317727366   0.107544681384491   1.0000000
N2   N   0.095333703171241   0.619047248689855   0.107303290667445   1.0000000
N2   N   0.095203400099742   0.761778087883159   0.106698170368459   1.0000000
N2   N   0.237991178808859   0.904493161915092   0.106713595856498   1.0000000
N2   N   0.237853514262728   0.047153825168948   0.106383622361429   1.0000000
N2   N   0.237649483062099   0.189825667453551   0.107650095676144   1.0000000
N2   N   0.236862114317021   0.332117430424572   0.110636116714354   1.0000000
N2   N   0.237725935455121   0.476152557228230   0.113513234090274   1.0000000
N2   N   0.238343172672149   0.619100877890854   0.113262521636686   1.0000000
N2   N   0.238119461503398   0.761807287378587   0.108945965038819   1.0000000
N2   N   0.380939245134466   0.904662174897310   0.107101807009376   1.0000000
N2   N   0.380814004311495   0.047288756963825   0.105619033719065   1.0000000
N2   N   0.380595324943402   0.189849405800209   0.108129663044922   1.0000000
N2   N   0.380045301053735   0.332163003277788   0.118865088663566   1.0000000
N2   N   0.374509459206891   0.471824286746621   0.138049403081432   1.0000000
N2   N   0.381516017875252   0.619418161824701   0.127693778263202   1.0000000
N2   N   0.381066991964060   0.762022619966594   0.113526737513966   1.0000000
N2   N   0.523971159049857   0.905335895628224   0.106750439300711   1.0000000
N2   N   0.523824497176807   0.047678099941171   0.104365859018247   1.0000000
N2   N   0.523683641375097   0.190048835466728   0.104802995370193   1.0000000
N2   N   0.523422611843614   0.331993362199802   0.113159797755030   1.0000000
N2   N   0.527654405538497   0.470603023582343   0.146302324384235   1.0000000
N2   N   0.528643157236136   0.628313548955754   0.150415896559782   1.0000000
N2   N   0.524329935703291   0.763557250130886   0.115110697103730   1.0000000
N2   N   0.667042458091310   0.905705365120368   0.105749334035766   1.0000000
N2   N   0.666801061023786   0.048118078337030   0.102864830337454   1.0000000
N2   N   0.666647744799419   0.190742601772889   0.102662782080333   1.0000000
N2   N   0.666498562115798   0.333530088128273   0.104893179941943   1.0000000
N2   N   0.667169262440005   0.476452179034804   0.113139051406983   1.0000000
N2   N   0.666715153086190   0.619918903363388   0.123779189239502   1.0000000
N2   N   0.667629318855995   0.763564790570805   0.112203563232596   1.0000000
N2   N   0.809826881099139   0.905307437997566   0.103808750127650   1.0000000
N2   N   0.809689102590687   0.048064581801998   0.101804584970529   1.0000000
N2   N   0.809562580364314   0.190810103866764   0.101550335109559   1.0000000
N2   N   0.809478372922452   0.333582337355797   0.102718613279531   1.0000000
N2   N   0.809645219992934   0.476363343862942   0.104988784802128   1.0000000
N2   N   0.809342426760384   0.619245785607871   0.108815162852932   1.0000000
N2   N   0.809535672829471   0.762115564960896   0.108415183470140   1.0000000


