data_1
_audit_creation_method   'vasp2cif'
_cell_length_a    17.52789999999977
_cell_length_b    17.52789999999977
_cell_length_c    15.0
_cell_angle_alpha    90.0
_cell_angle_beta    90.0
_cell_angle_gamma    119.99999999999916

_symmetry_space_group_name_H-M    'P 1'
loop_
_atom_site_label
_atom_site_type_symbol
_atom_site_fract_x
_atom_site_fract_y
_atom_site_fract_z
_atom_site_occupancy
Sb2   Sb   0.517763798216084   0.490282633476163   0.111745652210484   1.0000000
B2   B   0.904791121498857   0.951935709908398   0.107933940004988   1.0000000
B2   B   0.903780332119675   0.093902705884656   0.110953494244039   1.0000000
B2   B   0.903901990216245   0.236621246767466   0.111146611637512   1.0000000
B2   B   0.904657424355013   0.379660838964961   0.108349207255066   1.0000000
B2   B   0.907022237722117   0.523362371295551   0.105148030576083   1.0000000
B2   B   0.908219681726423   0.667379920340435   0.106741996069789   1.0000000
B2   B   0.907823218425399   0.811143352559745   0.105384415914577   1.0000000
B2   B   0.047900556248844   0.952176254331140   0.110078694924333   1.0000000
B2   B   0.046964083581764   0.094560233663480   0.113002534898293   1.0000000
B2   B   0.046467148417198   0.237020346935996   0.113521874577861   1.0000000
B2   B   0.046538886651371   0.379822423552932   0.112751121027219   1.0000000
B2   B   0.047370534902206   0.523150630285607   0.109112472463833   1.0000000
B2   B   0.048371418137560   0.666712219624632   0.106214694165742   1.0000000
B2   B   0.048772157111593   0.809823994961459   0.107001586177105   1.0000000
B2   B   0.190187507582583   0.951710177975970   0.112555043145142   1.0000000
B2   B   0.188585576976413   0.093058499227920   0.114684157941973   1.0000000
B2   B   0.189458185276425   0.237571190817142   0.112119492254042   1.0000000
B2   B   0.188816941584449   0.380388802785385   0.114289602342782   1.0000000
B2   B   0.188235335672041   0.523454554118708   0.115882191110925   1.0000000
B2   B   0.188771289669983   0.666662974915616   0.112334642597338   1.0000000
B2   B   0.190224060152199   0.809489717677224   0.110434219155095   1.0000000
B2   B   0.332658750256230   0.951648197321208   0.112599253777180   1.0000000
B2   B   0.332201538845552   0.093211398724664   0.112435137116018   1.0000000
B2   B   0.327944751309596   0.232073358349004   0.103782182836712   1.0000000
B2   B   0.332462296674846   0.382366012945259   0.100710199713332   1.0000000
B2   B   0.329377843379913   0.524800003876052   0.115668919499674   1.0000000
B2   B   0.329026915578753   0.667746098782061   0.116838893708793   1.0000000
B2   B   0.332020539801213   0.809756454930427   0.112134988283568   1.0000000
B2   B   0.475267202355953   0.951243338463091   0.111195904056204   1.0000000
B2   B   0.475483496680222   0.092931640771607   0.112161842608225   1.0000000
B2   B   0.475037433154174   0.233351914060233   0.107084725669524   1.0000000
B2   B   0.464761471766335   0.360704511607080   0.085316960536097   1.0000000
B2   B   0.492694257659029   0.589694552662978   0.088583256555164   1.0000000
B2   B   0.467665199533387   0.666579355008676   0.101932487741327   1.0000000
B2   B   0.474148964338104   0.809050007895751   0.109261693762178   1.0000000
B2   B   0.617829135991362   0.950549806558487   0.108739648773066   1.0000000
B2   B   0.618413114248502   0.093480352311343   0.110331878064005   1.0000000
B2   B   0.618871205605303   0.236182550754246   0.109846430098814   1.0000000
B2   B   0.620267424751007   0.379639628755359   0.115236523812502   1.0000000
B2   B   0.643473622780131   0.534258747728269   0.149575820597471   1.0000000
B2   B   0.628408123438834   0.668541389855952   0.130669882667558   1.0000000
B2   B   0.616474027235108   0.807030482012728   0.107206799370525   1.0000000
B2   B   0.760763255951000   0.950726467047353   0.108268466509324   1.0000000
B2   B   0.760990305790512   0.093514824158931   0.109953348935095   1.0000000
B2   B   0.761515999553721   0.236409038829622   0.109466093926371   1.0000000
B2   B   0.762807467549820   0.379596440865550   0.109392554078729   1.0000000
B2   B   0.768595553561728   0.524039610458294   0.118993454962402   1.0000000
B2   B   0.772087089861386   0.671990137901743   0.123409492998279   1.0000000
B2   B   0.763142414579829   0.809339963236623   0.109294324780486   1.0000000
N2   N   0.953178159002097   0.905229965219718   0.106402991064693   1.0000000
N2   N   0.951730499044282   0.046756687913043   0.110717872976482   1.0000000
N2   N   0.951368562711611   0.189040969189583   0.112211382305881   1.0000000
N2   N   0.951585965896232   0.331819270434384   0.110685695772006   1.0000000
N2   N   0.952746412868779   0.474917831617543   0.106351893380602   1.0000000
N2   N   0.953748728365564   0.618617726282958   0.104080699606475   1.0000000
N2   N   0.953948271522287   0.762315241671105   0.104804877950898   1.0000000
N2   N   0.095362180072165   0.904613122431225   0.110003376275807   1.0000000
N2   N   0.094218979017019   0.046673770217767   0.113845073003267   1.0000000
N2   N   0.094583595296231   0.189986870775275   0.113889745236663   1.0000000
N2   N   0.094085357563891   0.332222552402553   0.114434610982602   1.0000000
N2   N   0.093887445176129   0.475043269264318   0.112769012192850   1.0000000
N2   N   0.094432399860709   0.618377799091374   0.108729672951644   1.0000000
N2   N   0.095465699984975   0.761778806916492   0.107640655392203   1.0000000
N2   N   0.237756010049623   0.904420350381912   0.112076488687906   1.0000000
N2   N   0.237312583382833   0.046637916081583   0.114451670028501   1.0000000
N2   N   0.235013029438500   0.187777540077780   0.112896499436722   1.0000000
N2   N   0.237982142582836   0.334011553975816   0.109918351001985   1.0000000
N2   N   0.235423795315533   0.475456036494655   0.116880810975437   1.0000000
N2   N   0.234975786323113   0.618621592305536   0.116558177136022   1.0000000
N2   N   0.237155918622937   0.761759525301080   0.111701712812943   1.0000000
N2   N   0.380291101593509   0.904465773115978   0.111718883192997   1.0000000
N2   N   0.380447126453561   0.046577188209793   0.113173014544743   1.0000000
N2   N   0.379606232002090   0.188326992747138   0.107567074127487   1.0000000
N2   N   0.373196534183537   0.325897160610347   0.089400976196809   1.0000000
N2   N   0.380995396253446   0.481478726414670   0.107500335596860   1.0000000
N2   N   0.374958761502201   0.619865334496714   0.117156855545490   1.0000000
N2   N   0.379207603222207   0.762233748253541   0.112714347078297   1.0000000
N2   N   0.522791337700660   0.903624878630164   0.109731793276379   1.0000000
N2   N   0.523335784689998   0.046094908766861   0.111486794395237   1.0000000
N2   N   0.523523701222112   0.187995715008670   0.111019700134125   1.0000000
N2   N   0.523590395715003   0.329135402197537   0.101952655897319   1.0000000
N2   N   0.521175917103183   0.760382707466996   0.104530185240232   1.0000000
N2   N   0.665061605466411   0.901898032904403   0.107542521925361   1.0000000
N2   N   0.665801386927566   0.045666673165686   0.109638124182265   1.0000000
N2   N   0.666276101362801   0.188883008047599   0.109663464185394   1.0000000
N2   N   0.666890619338865   0.332143797536978   0.110818562882752   1.0000000
N2   N   0.674118783079877   0.475492266845497   0.133290155944813   1.0000000
N2   N   0.680306806549847   0.627152344171276   0.146594372185062   1.0000000
N2   N   0.665299173532775   0.758819471590176   0.112771110661505   1.0000000
N2   N   0.808911638075797   0.903517109536596   0.107156574971565   1.0000000
N2   N   0.808357986857833   0.045689032879483   0.109730629043120   1.0000000
N2   N   0.808714833260560   0.188711697542461   0.110262761015394   1.0000000
N2   N   0.809341736232463   0.331723976754397   0.108424334525934   1.0000000
N2   N   0.812226287809607   0.475111485360837   0.107836102761018   1.0000000
N2   N   0.813852572229537   0.619635878941033   0.115919605183607   1.0000000
N2   N   0.813019534178717   0.764086781001288   0.108815109679790   1.0000000


