data_1
_audit_creation_method   'vasp2cif'
_cell_length_a    14.93631414619966
_cell_length_b    14.936314146199727
_cell_length_c    13.341276283792837
_cell_angle_alpha    90.0
_cell_angle_beta    90.0
_cell_angle_gamma    119.99999999999984

_symmetry_space_group_name_H-M    'P 1'
loop_
_atom_site_label
_atom_site_type_symbol
_atom_site_fract_x
_atom_site_fract_y
_atom_site_fract_z
_atom_site_occupancy
Al2   Al   0.555555555555557   0.444444444444443   0.375000000000000   1.0000000
N2   N   0.111102633921023   0.055551233128730   0.124980555963586   1.0000000
N2   N   0.611113496046050   0.555560325425431   0.124340068864187   1.0000000
N2   N   0.444444387096116   0.055555470584859   0.125040264640017   1.0000000
N2   N   0.944444529415140   0.555555612903883   0.125040264640017   1.0000000
N2   N   0.777780737184898   0.055557035259117   0.124952495206695   1.0000000
N2   N   0.111110635134011   0.722221984233670   0.624988038669528   1.0000000
N2   N   0.444444387096116   0.722222249844591   0.624959735359983   1.0000000
N2   N   0.277764131529135   0.222212675945388   0.625063637858370   1.0000000
N2   N   0.777787324054613   0.722235868470865   0.625063637858370   1.0000000
N2   N   0.611115211082923   0.222212675945388   0.625063637858370   1.0000000
N2   N   0.944442964740883   0.222219262815102   0.625047504793305   1.0000000
N2   N   0.277778015766330   0.722221984233670   0.125011961330472   1.0000000
N2   N   0.111099523405148   0.222216428369238   0.124950896664364   1.0000000
N2   N   0.444447805372239   0.222228944077813   0.125014633507745   1.0000000
N2   N   0.611115211082923   0.722235868470865   0.124936362141630   1.0000000
N2   N   0.944444529415140   0.722222249844591   0.125040264640017   1.0000000
N2   N   0.777783571630762   0.222216428369238   0.124950896664364   1.0000000
N2   N   0.111110727543263   0.888889272456736   0.624983857704958   1.0000000
N2   N   0.444445211580144   0.888889272456736   0.624983857704958   1.0000000
N2   N   0.277764131529135   0.388884788917077   0.625063637858370   1.0000000
N2   N   0.611113496046050   0.388886503953949   0.625659931135813   1.0000000
N2   N   0.777783571630762   0.888900476594852   0.625049103335636   1.0000000
N2   N   0.944448766871270   0.388884734125621   0.625019444036414   1.0000000
N2   N   0.111102633921023   0.388884734125621   0.124980555963586   1.0000000
N2   N   0.277778015766330   0.888889364865989   0.125011961330472   1.0000000
N2   N   0.611115265874378   0.888897366078977   0.124980555963586   1.0000000
N2   N   0.444439674574569   0.388886503953949   0.124340068864187   1.0000000
N2   N   0.944448766871270   0.888897366078977   0.124980555963586   1.0000000
N2   N   0.777787324054613   0.388884788917077   0.124936362141630   1.0000000
N2   N   0.277777750155408   0.555555612903883   0.624959735359983   1.0000000
N2   N   0.111102633921023   0.055551233128730   0.625019444036414   1.0000000
N2   N   0.611113496046050   0.555560325425431   0.625659931135813   1.0000000
N2   N   0.444444387096116   0.055555470584859   0.624959735359983   1.0000000
N2   N   0.944444529415140   0.555555612903883   0.624959735359983   1.0000000
N2   N   0.111110727543263   0.555554788419856   0.125016142295043   1.0000000
N2   N   0.777780737184898   0.055557035259117   0.625047504793305   1.0000000
N2   N   0.277777750155408   0.055555470584859   0.125040264640017   1.0000000
N2   N   0.444447805372239   0.555552194627761   0.125014633507745   1.0000000
N2   N   0.777771055922186   0.555552194627761   0.125014633507745   1.0000000
N2   N   0.611115265874378   0.055551233128730   0.124980555963586   1.0000000
N2   N   0.444447805372239   0.555552194627761   0.624985366492255   1.0000000
N2   N   0.944442964740883   0.055557035259117   0.124952495206695   1.0000000
N2   N   0.277778015766330   0.722221984233670   0.624988038669528   1.0000000
N2   N   0.111099523405148   0.222216428369238   0.625049103335636   1.0000000
N2   N   0.444447805372239   0.222228944077813   0.624985366492255   1.0000000
N2   N   0.611115211082923   0.722235868470865   0.625063637858370   1.0000000
N2   N   0.944444529415140   0.722222249844591   0.624959735359983   1.0000000
N2   N   0.777783571630762   0.222216428369238   0.625049103335636   1.0000000
N2   N   0.111110635134011   0.722221984233670   0.125011961330472   1.0000000
N2   N   0.444444387096116   0.722222249844591   0.125040264640017   1.0000000
N2   N   0.277764131529135   0.222212675945388   0.124936362141630   1.0000000
N2   N   0.777787324054613   0.722235868470865   0.124936362141630   1.0000000
N2   N   0.611115211082923   0.222212675945388   0.124936362141630   1.0000000
N2   N   0.944442964740883   0.222219262815102   0.124952495206695   1.0000000
N2   N   0.111102633921023   0.388884734125621   0.625019444036414   1.0000000
N2   N   0.277778015766330   0.888889364865989   0.624988038669528   1.0000000
N2   N   0.611115265874378   0.888897366078977   0.625019444036414   1.0000000
N2   N   0.444439674574569   0.388886503953949   0.625659931135813   1.0000000
N2   N   0.944448766871270   0.888897366078977   0.625019444036414   1.0000000
N2   N   0.111110727543263   0.888889272456736   0.125016142295043   1.0000000
N2   N   0.777787324054613   0.388884788917077   0.625063637858370   1.0000000
N2   N   0.444445211580144   0.888889272456736   0.125016142295043   1.0000000
N2   N   0.277764131529135   0.388884788917077   0.124936362141630   1.0000000
N2   N   0.277777750155408   0.555555612903883   0.125040264640017   1.0000000
N2   N   0.611113496046050   0.388886503953949   0.124340068864187   1.0000000
N2   N   0.777783571630762   0.888900476594852   0.124950896664364   1.0000000
N2   N   0.944448766871270   0.388884734125621   0.124980555963586   1.0000000
N2   N   0.111110727543263   0.555554788419856   0.624983857704958   1.0000000
N2   N   0.277777750155408   0.055555470584859   0.624959735359983   1.0000000
N2   N   0.777771055922186   0.555552194627761   0.624985366492255   1.0000000
N2   N   0.611115265874378   0.055551233128730   0.625019444036414   1.0000000
N2   N   0.944442964740883   0.055557035259117   0.625047504793305   1.0000000
N2   N   0.054136347522187   0.110176768331868   0.375000000000000   1.0000000
N2   N   0.556521238306662   0.622707612919927   0.375000000000000   1.0000000
N2   N   0.387750589569556   0.108834512472455   0.375000000000000   1.0000000
N2   N   0.891165487527545   0.612249410430444   0.375000000000000   1.0000000
N2   N   0.722707087476345   0.110176768331868   0.375000000000000   1.0000000
N2   N   0.055554251284368   0.777778280728332   0.875000000000000   1.0000000
N2   N   0.388890696110629   0.777778280728332   0.875000000000000   1.0000000
N2   N   0.222222032530019   0.277777682931677   0.875000000000000   1.0000000
N2   N   0.722222317068323   0.777777967469981   0.875000000000000   1.0000000
N2   N   0.555555058755393   0.277777400804459   0.875000000000000   1.0000000
N2   N   0.888890090519266   0.277778760528720   0.875000000000000   1.0000000
N2   N   0.222222222222221   0.777777777777779   0.375000000000000   1.0000000
N2   N   0.054136347522187   0.277292912523655   0.375000000000000   1.0000000
N2   N   0.377292387080072   0.267146958720070   0.375000000000000   1.0000000
N2   N   0.555217505062497   0.782425167848995   0.375000000000000   1.0000000
N2   N   0.893874329453161   0.782425167848995   0.375000000000000   1.0000000
N2   N   0.724521832907525   0.275478167092475   0.375000000000000   1.0000000
N2   N   0.055555546715777   0.944444453284223   0.875000000000000   1.0000000
N2   N   0.388890696110629   0.944445748715633   0.875000000000000   1.0000000
N2   N   0.222220992866395   0.444444495861915   0.875000000000000   1.0000000
N2   N   0.555555555555557   0.444444444444443   0.875000000000000   1.0000000
N2   N   0.722221239471280   0.944444663323882   0.875000000000000   1.0000000
N2   N   0.888890169662184   0.444444495861915   0.875000000000000   1.0000000
N2   N   0.055794897691992   0.444923128717311   0.375000000000000   1.0000000
N2   N   0.221871966479216   0.943403763714489   0.375000000000000   1.0000000
N2   N   0.555076871282688   0.944205102308008   0.375000000000000   1.0000000
N2   N   0.377292387080072   0.443478761693337   0.375000000000000   1.0000000
N2   N   0.889823231668132   0.945863652477813   0.375000000000000   1.0000000
N2   N   0.732853041279930   0.443478761693337   0.375000000000000   1.0000000
N2   N   0.222221719271667   0.611109303889371   0.875000000000000   1.0000000
N2   N   0.055555336676119   0.111109909480735   0.875000000000000   1.0000000
N2   N   0.555555058755393   0.611110991284269   0.875000000000000   1.0000000
N2   N   0.388889971691319   0.111113276715980   0.875000000000000   1.0000000
N2   N   0.888886723284020   0.611110028308681   0.875000000000000   1.0000000
N2   N   0.056596236285511   0.611801536098064   0.375000000000000   1.0000000
N2   N   0.722221239471280   0.111109909480735   0.875000000000000   1.0000000
N2   N   0.217574832151005   0.106125670546838   0.375000000000000   1.0000000
N2   N   0.387750589569556   0.612249410430444   0.375000000000000   1.0000000
N2   N   0.732853041279930   0.622707612919927   0.375000000000000   1.0000000
N2   N   0.555217505062497   0.106125670546838   0.375000000000000   1.0000000
N2   N   0.388889971691319   0.611110028308681   0.875000000000000   1.0000000
N2   N   0.888888888888886   0.111111111111114   0.375000000000000   1.0000000
N2   N   0.222222222222221   0.777777777777779   0.875000000000000   1.0000000
N2   N   0.055555336676119   0.277778760528720   0.875000000000000   1.0000000
N2   N   0.388889008715730   0.277777400804459   0.875000000000000   1.0000000
N2   N   0.555555504138085   0.777779007133605   0.875000000000000   1.0000000
N2   N   0.888890169662184   0.777779007133605   0.875000000000000   1.0000000
N2   N   0.722222317068323   0.277777682931677   0.875000000000000   1.0000000
N2   N   0.056596236285511   0.778128033520784   0.375000000000000   1.0000000
N2   N   0.388198463901937   0.778128033520784   0.375000000000000   1.0000000
N2   N   0.217623000851615   0.275478167092475   0.375000000000000   1.0000000
N2   N   0.724521832907525   0.782376999148386   0.375000000000000   1.0000000
N2   N   0.556521238306662   0.267146958720070   0.375000000000000   1.0000000
N2   N   0.889823231668132   0.277292912523655   0.375000000000000   1.0000000
N2   N   0.055555546715777   0.444444426764883   0.875000000000000   1.0000000
N2   N   0.222221719271667   0.944445748715633   0.875000000000000   1.0000000
N2   N   0.555555573235118   0.944444453284223   0.875000000000000   1.0000000
N2   N   0.388889008715730   0.444444941244608   0.875000000000000   1.0000000
N2   N   0.888890090519266   0.944444663323882   0.875000000000000   1.0000000
N2   N   0.055794897691992   0.944205102308008   0.375000000000000   1.0000000
N2   N   0.722222599195542   0.444444941244608   0.875000000000000   1.0000000
N2   N   0.388198463901937   0.943403763714489   0.375000000000000   1.0000000
N2   N   0.217574832151005   0.444782494937503   0.375000000000000   1.0000000
N2   N   0.221871966479216   0.611801536098064   0.375000000000000   1.0000000
N2   N   0.722707087476345   0.945863652477813   0.375000000000000   1.0000000
N2   N   0.893874329453161   0.444782494937503   0.375000000000000   1.0000000
N2   N   0.055554251284368   0.611109303889371   0.875000000000000   1.0000000
N2   N   0.222220992866395   0.111109830337816   0.875000000000000   1.0000000
N2   N   0.722222599195542   0.611110991284269   0.875000000000000   1.0000000
N2   N   0.555555504138085   0.111109830337816   0.875000000000000   1.0000000
N2   N   0.888888888888886   0.111111111111114   0.875000000000000   1.0000000
B2   B   0.108470246284441   0.053539062374889   0.375000000000000   1.0000000
B2   B   0.625407042484385   0.584147418302100   0.375000000000000   1.0000000
B2   B   0.444065608590803   0.053735413301282   0.375000000000000   1.0000000
B2   B   0.946264586698718   0.555934391409197   0.375000000000000   1.0000000
B2   B   0.778415502062232   0.055874417697784   0.375000000000000   1.0000000
B2   B   0.111108918714085   0.722221126023707   0.875000000000000   1.0000000
B2   B   0.444448764195763   0.722224815155743   0.875000000000000   1.0000000
B2   B   0.277771029849150   0.222219991584542   0.875000000000000   1.0000000
B2   B   0.777780008415458   0.722228970150850   0.875000000000000   1.0000000
B2   B   0.611115628402063   0.222219991584542   0.875000000000000   1.0000000
B2   B   0.944443252984960   0.222219839303258   0.875000000000000   1.0000000
B2   B   0.277487155835318   0.722512844164682   0.375000000000000   1.0000000
B2   B   0.108086319031330   0.220709826182329   0.375000000000000   1.0000000
B2   B   0.443026623350665   0.219386580034665   0.375000000000000   1.0000000
B2   B   0.612721690608355   0.731071828970019   0.375000000000000   1.0000000
B2   B   0.946264586698718   0.723663528622857   0.375000000000000   1.0000000
B2   B   0.779290173817671   0.220709826182329   0.375000000000000   1.0000000
B2   B   0.111108241567367   0.888891758432633   0.875000000000000   1.0000000
B2   B   0.444450183531937   0.888891758432633   0.875000000000000   1.0000000
B2   B   0.277771029849150   0.388884371597937   0.875000000000000   1.0000000
B2   B   0.611118271806120   0.388881728193880   0.875000000000000   1.0000000
B2   B   0.777780277864264   0.888893889061857   0.875000000000000   1.0000000
B2   B   0.944443745269221   0.388883711739333   0.875000000000000   1.0000000
B2   B   0.108470246284441   0.388264517242882   0.375000000000000   1.0000000
B2   B   0.277487155835318   0.888307645003965   0.375000000000000   1.0000000
B2   B   0.611735482757119   0.891529753715558   0.375000000000000   1.0000000
B2   B   0.415852581697901   0.374592957515614   0.375000000000000   1.0000000
B2   B   0.946460937625111   0.891529753715558   0.375000000000000   1.0000000
B2   B   0.785016805028336   0.387278309391645   0.375000000000000   1.0000000
B2   B   0.277775184844257   0.555551235804238   0.875000000000000   1.0000000
B2   B   0.111106633136783   0.055556254730779   0.875000000000000   1.0000000
B2   B   0.611118271806120   0.555569876945568   0.875000000000000   1.0000000
B2   B   0.444448764195763   0.055557282373355   0.875000000000000   1.0000000
B2   B   0.944442717626645   0.555551235804238   0.875000000000000   1.0000000
B2   B   0.111264951480170   0.555863236293668   0.375000000000000   1.0000000
B2   B   0.777780160696742   0.055556747015039   0.875000000000000   1.0000000
B2   B   0.276336471377143   0.053735413301282   0.375000000000000   1.0000000
B2   B   0.443026623350665   0.556973376649335   0.375000000000000   1.0000000
B2   B   0.780613419965334   0.556973376649335   0.375000000000000   1.0000000
B2   B   0.611735482757119   0.053539062374889   0.375000000000000   1.0000000
B2   B   0.444444255103268   0.555555744896732   0.875000000000000   1.0000000
B2   B   0.944125582302216   0.055874417697784   0.375000000000000   1.0000000
B2   B   0.277778873976294   0.722221126023707   0.875000000000000   1.0000000
B2   B   0.111106110938143   0.222219722135735   0.875000000000000   1.0000000
B2   B   0.444444255103268   0.222221843539872   0.875000000000000   1.0000000
B2   B   0.611115628402063   0.722228970150850   0.875000000000000   1.0000000
B2   B   0.944442717626645   0.722224815155743   0.875000000000000   1.0000000
B2   B   0.777780277864264   0.222219722135735   0.875000000000000   1.0000000
B2   B   0.111692354996035   0.722512844164682   0.375000000000000   1.0000000
B2   B   0.444065608590803   0.723663528622857   0.375000000000000   1.0000000
B2   B   0.268928171029980   0.214983194971664   0.375000000000000   1.0000000
B2   B   0.785016805028336   0.731071828970019   0.375000000000000   1.0000000
B2   B   0.612721690608355   0.214983194971664   0.375000000000000   1.0000000
B2   B   0.944125582302216   0.221584497937768   0.375000000000000   1.0000000
B2   B   0.111106633136783   0.388883711739333   0.875000000000000   1.0000000
B2   B   0.277778873976294   0.888891081285916   0.875000000000000   1.0000000
B2   B   0.611116288260667   0.888893366863217   0.875000000000000   1.0000000
B2   B   0.444430123054432   0.388881728193880   0.875000000000000   1.0000000
B2   B   0.944443745269221   0.888893366863217   0.875000000000000   1.0000000
B2   B   0.111264951480170   0.888735048519831   0.375000000000000   1.0000000
B2   B   0.777780008415458   0.388884371597937   0.875000000000000   1.0000000
B2   B   0.444136763706332   0.888735048519831   0.375000000000000   1.0000000
B2   B   0.268928171029980   0.387278309391645   0.375000000000000   1.0000000
B2   B   0.276336471377143   0.555934391409197   0.375000000000000   1.0000000
B2   B   0.625407042484385   0.374592957515614   0.375000000000000   1.0000000
B2   B   0.779290173817671   0.891913680968670   0.375000000000000   1.0000000
B2   B   0.946460937625111   0.388264517242882   0.375000000000000   1.0000000
B2   B   0.111108241567367   0.555549816468063   0.875000000000000   1.0000000
B2   B   0.277775184844257   0.055557282373355   0.875000000000000   1.0000000
B2   B   0.777778156460128   0.555555744896732   0.875000000000000   1.0000000
B2   B   0.611116288260667   0.055556254730779   0.875000000000000   1.0000000
B2   B   0.944443252984960   0.055556747015039   0.875000000000000   1.0000000
B2   B   0.055541100652579   0.111108787418649   0.124988555814527   1.0000000
B2   B   0.555544926102176   0.611157402858681   0.124821343583626   1.0000000
B2   B   0.388880356662591   0.111094046658525   0.125040176265901   1.0000000
B2   B   0.888905953341475   0.611119643337409   0.125040176265901   1.0000000
B2   B   0.722234353432734   0.111108787418649   0.124988555814527   1.0000000
B2   B   0.055556277142405   0.777782301428143   0.624995541524941   1.0000000
B2   B   0.388892690952403   0.777782301428143   0.624995541524941   1.0000000
B2   B   0.222195408267404   0.277764370800370   0.625022572064697   1.0000000
B2   B   0.722235629199630   0.777804591732595   0.625022572064697   1.0000000
B2   B   0.555544926102176   0.277720856576831   0.625178656416375   1.0000000
B2   B   0.888891212581351   0.277765646567266   0.625011444185474   1.0000000
B2   B   0.222222222222221   0.777777777777779   0.124993775804617   1.0000000
B2   B   0.055541100652579   0.277765646567266   0.124988555814527   1.0000000
B2   B   0.388842597141319   0.277720856576831   0.124821343583626   1.0000000
B2   B   0.555568327298028   0.777795696536278   0.125002939831276   1.0000000
B2   B   0.888894035904915   0.777795696536278   0.125002939831276   1.0000000
B2   B   0.722235629199630   0.277764370800370   0.124977427935303   1.0000000
B2   B   0.055548608985142   0.944451391014858   0.625003515232184   1.0000000
B2   B   0.388892690952403   0.944443722857595   0.624995541524941   1.0000000
B2   B   0.222204303463722   0.444431672701972   0.624997060168724   1.0000000
B2   B   0.555555555555557   0.444444444444443   0.626046046130443   1.0000000
B2   B   0.722234353432734   0.944458899347421   0.625011444185474   1.0000000
B2   B   0.888894035904915   0.444431672701972   0.624997060168724   1.0000000
B2   B   0.055548608985142   0.444430551303612   0.124996484767816   1.0000000
B2   B   0.222217698571857   0.944443722857595   0.125004458475060   1.0000000
B2   B   0.555569448696387   0.944451391014858   0.124996484767816   1.0000000
B2   B   0.388842597141319   0.444455073897824   0.124821343583626   1.0000000
B2   B   0.888891212581351   0.944458899347421   0.124988555814527   1.0000000
B2   B   0.722279143423169   0.444455073897824   0.124821343583626   1.0000000
B2   B   0.222217698571857   0.611107309047598   0.624995541524941   1.0000000
B2   B   0.055541100652579   0.111108787418649   0.625011444185474   1.0000000
B2   B   0.555544926102176   0.611157402858681   0.625178656416375   1.0000000
B2   B   0.388880356662591   0.111094046658525   0.624959823734099   1.0000000
B2   B   0.888905953341475   0.611119643337409   0.624959823734099   1.0000000
B2   B   0.055556277142405   0.611107309047598   0.125004458475060   1.0000000
B2   B   0.722234353432734   0.111108787418649   0.625011444185474   1.0000000
B2   B   0.222204303463722   0.111105964095085   0.125002939831276   1.0000000
B2   B   0.388880356662591   0.611119643337409   0.125040176265901   1.0000000
B2   B   0.722279143423169   0.611157402858681   0.124821343583626   1.0000000
B2   B   0.555568327298028   0.111105964095085   0.125002939831276   1.0000000
B2   B   0.388880356662591   0.611119643337409   0.624959823734099   1.0000000
B2   B   0.888888888888886   0.111111111111114   0.124993028068222   1.0000000
B2   B   0.222222222222221   0.777777777777779   0.625006224195383   1.0000000
B2   B   0.055541100652579   0.277765646567266   0.625011444185474   1.0000000
B2   B   0.388842597141319   0.277720856576831   0.625178656416375   1.0000000
B2   B   0.555568327298028   0.777795696536278   0.624997060168724   1.0000000
B2   B   0.888894035904915   0.777795696536278   0.624997060168724   1.0000000
B2   B   0.722235629199630   0.277764370800370   0.625022572064697   1.0000000
B2   B   0.055556277142405   0.777782301428143   0.125004458475060   1.0000000
B2   B   0.388892690952403   0.777782301428143   0.125004458475060   1.0000000
B2   B   0.222195408267404   0.277764370800370   0.124977427935303   1.0000000
B2   B   0.722235629199630   0.777804591732595   0.124977427935303   1.0000000
B2   B   0.555544926102176   0.277720856576831   0.124821343583626   1.0000000
B2   B   0.888891212581351   0.277765646567266   0.124988555814527   1.0000000
B2   B   0.055548608985142   0.444430551303612   0.625003515232184   1.0000000
B2   B   0.222217698571857   0.944443722857595   0.624995541524941   1.0000000
B2   B   0.555569448696387   0.944451391014858   0.625003515232184   1.0000000
B2   B   0.388842597141319   0.444455073897824   0.625178656416375   1.0000000
B2   B   0.888891212581351   0.944458899347421   0.625011444185474   1.0000000
B2   B   0.055548608985142   0.944451391014858   0.124996484767816   1.0000000
B2   B   0.722279143423169   0.444455073897824   0.625178656416375   1.0000000
B2   B   0.388892690952403   0.944443722857595   0.125004458475060   1.0000000
B2   B   0.222204303463722   0.444431672701972   0.125002939831276   1.0000000
B2   B   0.222217698571857   0.611107309047598   0.125004458475060   1.0000000
B2   B   0.555555555555557   0.444444444444443   0.123953953869556   1.0000000
B2   B   0.722234353432734   0.944458899347421   0.124988555814527   1.0000000
B2   B   0.888894035904915   0.444431672701972   0.125002939831276   1.0000000
B2   B   0.055556277142405   0.611107309047598   0.624995541524941   1.0000000
B2   B   0.222204303463722   0.111105964095085   0.624997060168724   1.0000000
B2   B   0.722279143423169   0.611157402858681   0.625178656416375   1.0000000
B2   B   0.555568327298028   0.111105964095085   0.624997060168724   1.0000000
B2   B   0.888888888888886   0.111111111111114   0.625006971931778   1.0000000


