data_1
_audit_creation_method   'vasp2cif'
_cell_length_a    17.52789999999977
_cell_length_b    17.52789999999977
_cell_length_c    15.0
_cell_angle_alpha    90.0
_cell_angle_beta    90.0
_cell_angle_gamma    119.99999999999916

_symmetry_space_group_name_H-M    'P 1'
loop_
_atom_site_label
_atom_site_type_symbol
_atom_site_fract_x
_atom_site_fract_y
_atom_site_fract_z
_atom_site_occupancy
B2   B   0.904206870609688   0.951859021096587   0.110999702919178   1.0000000
B2   B   0.904517743680688   0.094859433203867   0.111042209399731   1.0000000
B2   B   0.904706347897952   0.237833962774363   0.111034178404946   1.0000000
B2   B   0.904895751327988   0.380747230923174   0.110982727078235   1.0000000
B2   B   0.905951733199944   0.523921917787186   0.111001191003667   1.0000000
B2   B   0.906056513922972   0.667258373562517   0.111072971242807   1.0000000
B2   B   0.905039168026086   0.809694743821536   0.111041881874159   1.0000000
B2   B   0.047601498405338   0.952516816678584   0.110978568324299   1.0000000
B2   B   0.047414229285093   0.095121583258643   0.110990015414177   1.0000000
B2   B   0.047568695279761   0.237984156762278   0.110974019318013   1.0000000
B2   B   0.047671335801102   0.380865185596842   0.110998869026919   1.0000000
B2   B   0.048128420864531   0.523841856381847   0.111004078945154   1.0000000
B2   B   0.048170344010580   0.666960703129853   0.111018182186210   1.0000000
B2   B   0.048046044643862   0.809941434517030   0.110973130717123   1.0000000
B2   B   0.190628905060430   0.952753603561816   0.110965954489866   1.0000000
B2   B   0.190352632331003   0.095355373631533   0.111035842201933   1.0000000
B2   B   0.190504615888850   0.238350934677012   0.110995974617284   1.0000000
B2   B   0.190386082191986   0.380988843428412   0.110999232811405   1.0000000
B2   B   0.190673516590619   0.523903227025776   0.111090599129581   1.0000000
B2   B   0.190484097440433   0.666890697646850   0.111089416311356   1.0000000
B2   B   0.190675825842859   0.809895332521860   0.110994269795950   1.0000000
B2   B   0.333470784884466   0.952821615342076   0.111009045827798   1.0000000
B2   B   0.333457775052885   0.095771077312775   0.111044638327636   1.0000000
B2   B   0.332981998966679   0.238232618535446   0.111087543750751   1.0000000
B2   B   0.333478132040193   0.381096871507536   0.111075170264475   1.0000000
B2   B   0.333418575605390   0.524548283850877   0.111098790563817   1.0000000
B2   B   0.332809408925436   0.666945199227113   0.111133746138360   1.0000000
B2   B   0.333318896272814   0.809826512358472   0.111087128596896   1.0000000
B2   B   0.476213839641974   0.952434540627075   0.111000794566148   1.0000000
B2   B   0.476280522533920   0.095967643139019   0.110983928709517   1.0000000
B2   B   0.476192103365385   0.239812811997305   0.111068296114825   1.0000000
B2   B   0.475490696795688   0.384369376003845   0.111132828187428   1.0000000
B2   B   0.474522496275034   0.664755765564104   0.111045927710677   1.0000000
B2   B   0.475920227993038   0.808826376391689   0.111056095360031   1.0000000
B2   B   0.618797974514305   0.951835640790176   0.111015819504493   1.0000000
B2   B   0.618958492371692   0.095095884439954   0.110992126924932   1.0000000
B2   B   0.618902727670532   0.238097311268679   0.110994288841146   1.0000000
B2   B   0.617654818358530   0.380476791979148   0.110983208439983   1.0000000
B2   B   0.616362208696250   0.663335728701425   0.111014505590519   1.0000000
B2   B   0.618294442540713   0.808373916129142   0.110968713382134   1.0000000
B2   B   0.761425136945052   0.951628562612216   0.111011221559343   1.0000000
B2   B   0.761718103386874   0.094819748870264   0.111066585594124   1.0000000
B2   B   0.761845873125122   0.237860216674436   0.111048853832753   1.0000000
B2   B   0.762058379009940   0.380797659632316   0.110981878810234   1.0000000
B2   B   0.764901410617630   0.525411757633610   0.110991769900222   1.0000000
B2   B   0.763307314810354   0.666251743017359   0.111066963871070   1.0000000
B2   B   0.760819950391476   0.808218677474526   0.111009556943425   1.0000000
C2   C   0.475004162206042   0.521015084582417   0.111162418180885   1.0000000
N2   N   0.952378489424805   0.904861983833311   0.110982564444580   1.0000000
N2   N   0.952106958875105   0.047275274603821   0.110996728024832   1.0000000
N2   N   0.952371081414580   0.190244495973913   0.111006933479802   1.0000000
N2   N   0.952540935878133   0.333140889188490   0.110985214264418   1.0000000
N2   N   0.953148893932517   0.476033704406042   0.110952344632087   1.0000000
N2   N   0.953311010863161   0.619291243268755   0.111008025520722   1.0000000
N2   N   0.953049610679339   0.762410920768045   0.111021025442530   1.0000000
N2   N   0.095450349400392   0.905133453470887   0.110937784730384   1.0000000
N2   N   0.095182682308539   0.047729849046318   0.110986785313116   1.0000000
N2   N   0.095316084871486   0.190577892692879   0.110956430818175   1.0000000
N2   N   0.095390415933894   0.333365958183835   0.110962736740261   1.0000000
N2   N   0.095681898816731   0.476154617232577   0.111010825925898   1.0000000
N2   N   0.095562055624628   0.619120336708866   0.111014305533690   1.0000000
N2   N   0.095601833822149   0.762228519984993   0.110970028395276   1.0000000
N2   N   0.238250467158258   0.905120515395399   0.110959691262729   1.0000000
N2   N   0.238188581144617   0.048005684950885   0.111007490934733   1.0000000
N2   N   0.237927188260294   0.190690223238031   0.111033367806347   1.0000000
N2   N   0.238425134914926   0.334036305293875   0.110987524634459   1.0000000
N2   N   0.238610534981373   0.476293176832918   0.111051794757963   1.0000000
N2   N   0.237974259183071   0.619089656935707   0.111112278825610   1.0000000
N2   N   0.238179018607286   0.762107164412506   0.111048823252799   1.0000000
N2   N   0.380978108270065   0.904975695534700   0.111020818275030   1.0000000
N2   N   0.381022232318491   0.048077963646133   0.110991872525526   1.0000000
N2   N   0.380848545315180   0.191115876317892   0.111065160423518   1.0000000
N2   N   0.380183443306540   0.333622270851392   0.111081646707945   1.0000000
N2   N   0.382623980435011   0.477774431120810   0.111092471749773   1.0000000
N2   N   0.380086952409521   0.618898405992932   0.111078074977581   1.0000000
N2   N   0.380773152795499   0.761888463204766   0.111096816215388   1.0000000
N2   N   0.523543311776249   0.904172973813689   0.111007048618466   1.0000000
N2   N   0.523709421478653   0.047793151368908   0.110946550672044   1.0000000
N2   N   0.523580570315826   0.191351798869941   0.110984155618923   1.0000000
N2   N   0.522759098493076   0.335429772522907   0.111069069907722   1.0000000
N2   N   0.518199350790190   0.479341799195974   0.111175362909256   1.0000000
N2   N   0.519651782832245   0.613820713392809   0.111057992262839   1.0000000
N2   N   0.522918831742943   0.760096021878824   0.110986570222265   1.0000000
N2   N   0.666054096058113   0.903785522321746   0.110972207490679   1.0000000
N2   N   0.666420112281440   0.047146164205028   0.111011156830311   1.0000000
N2   N   0.666561958350454   0.190285684392541   0.111006952766879   1.0000000
N2   N   0.666621336794237   0.332962090198512   0.110969940519293   1.0000000
N2   N   0.673279904477694   0.471996395110519   0.110826835849850   1.0000000
N2   N   0.670757632085422   0.626514555448917   0.110975747801340   1.0000000
N2   N   0.664869901871611   0.760062373302818   0.110963232082514   1.0000000
N2   N   0.808745038504566   0.903829843135086   0.110983167171618   1.0000000
N2   N   0.809216532601662   0.047042409581712   0.111039824891925   1.0000000
N2   N   0.809460248807769   0.190130175479043   0.111051841787805   1.0000000
N2   N   0.809681834584894   0.333039386849024   0.111000265984136   1.0000000
N2   N   0.811214807083056   0.476009356005331   0.110963856502926   1.0000000
N2   N   0.811482151347221   0.619872005974376   0.111068212444234   1.0000000
N2   N   0.809856618023964   0.762154043689055   0.111041427666178   1.0000000


