data_1
_audit_creation_method   'vasp2cif'
_cell_length_a    17.52789999999977
_cell_length_b    17.52789999999977
_cell_length_c    15.0
_cell_angle_alpha    90.0
_cell_angle_beta    90.0
_cell_angle_gamma    119.99999999999916

_symmetry_space_group_name_H-M    'P 1'
loop_
_atom_site_label
_atom_site_type_symbol
_atom_site_fract_x
_atom_site_fract_y
_atom_site_fract_z
_atom_site_occupancy
B2   B   0.905391530599202   0.953115034515422   0.118510592840026   1.0000000
B2   B   0.904494787323519   0.095661419034824   0.118300346973162   1.0000000
B2   B   0.904176189919350   0.238527566260745   0.117299601333246   1.0000000
B2   B   0.904204002280099   0.381374700003942   0.116205755640720   1.0000000
B2   B   0.904807203550167   0.524171205884630   0.114940435951084   1.0000000
B2   B   0.905999856867849   0.667228264397877   0.115383500570583   1.0000000
B2   B   0.906354315046045   0.810600236103734   0.117430914569471   1.0000000
B2   B   0.047968109382151   0.952179725523467   0.118464679515289   1.0000000
B2   B   0.047026980184349   0.094751991885728   0.118516065273209   1.0000000
B2   B   0.046812112360780   0.237898005853613   0.116738920754848   1.0000000
B2   B   0.047161421354461   0.380898486491119   0.114440265136496   1.0000000
B2   B   0.048047787485961   0.523653455445425   0.114380300520433   1.0000000
B2   B   0.048560861669481   0.666473434871539   0.115779546250077   1.0000000
B2   B   0.048532747995771   0.809411833892160   0.117443302804485   1.0000000
B2   B   0.190741623262420   0.951631045620595   0.117472298169466   1.0000000
B2   B   0.189547103603998   0.093797441723936   0.117492484442379   1.0000000
B2   B   0.188537930474296   0.236361875686914   0.115291288243224   1.0000000
B2   B   0.189450766179851   0.380070324660483   0.109327036542623   1.0000000
B2   B   0.191394359437818   0.523023201159992   0.107588313563311   1.0000000
B2   B   0.191627485192454   0.665929454846368   0.111003551613386   1.0000000
B2   B   0.191296235439091   0.808865865837247   0.115273564067491   1.0000000
B2   B   0.333685666619037   0.951599074968953   0.115807008362765   1.0000000
B2   B   0.332936816825873   0.094160936788076   0.115477653797576   1.0000000
B2   B   0.330671299067641   0.235007224835606   0.112569573600020   1.0000000
B2   B   0.329172170240974   0.377648107257750   0.101889109114288   1.0000000
B2   B   0.334926925873764   0.521489155789708   0.093734999413921   1.0000000
B2   B   0.334965372090192   0.665181918740290   0.101405217358067   1.0000000
B2   B   0.334228251602942   0.808528472861108   0.111004776258111   1.0000000
B2   B   0.476511678329203   0.952110366568348   0.114386006332502   1.0000000
B2   B   0.475993733664298   0.095349873935305   0.114999927881906   1.0000000
B2   B   0.475042705765297   0.238168471547195   0.108304820455618   1.0000000
B2   B   0.469083052799529   0.375975706545758   0.094756008063997   1.0000000
B2   B   0.478639387658482   0.665186703257935   0.093729001280062   1.0000000
B2   B   0.477124037017869   0.808742507595597   0.107580324999647   1.0000000
B2   B   0.619260434929066   0.952991905923542   0.114446513898873   1.0000000
B2   B   0.618786581668055   0.095954518859003   0.116226737882886   1.0000000
B2   B   0.618303739813810   0.239125128819143   0.112010795579898   1.0000000
B2   B   0.617693676600432   0.382454749460624   0.101959946233097   1.0000000
B2   B   0.624167441274837   0.531058720250070   0.094696430416700   1.0000000
B2   B   0.622494103508563   0.670958754496777   0.101850040655538   1.0000000
B2   B   0.620068863069605   0.810678690387638   0.109327382348039   1.0000000
B2   B   0.762255177755623   0.953335820591216   0.116751257077285   1.0000000
B2   B   0.761634222110210   0.095986106278150   0.117305403568954   1.0000000
B2   B   0.761263020200213   0.238899756001280   0.116263068716574   1.0000000
B2   B   0.761022857394979   0.381849645217504   0.111977549137933   1.0000000
B2   B   0.761985962231666   0.525119659582852   0.108212798264614   1.0000000
B2   B   0.765141731568988   0.669475502482991   0.112474000241888   1.0000000
B2   B   0.763777999071975   0.811597304135663   0.115249222410563   1.0000000
N2   N   0.953120467408400   0.905392807289244   0.118497811421455   1.0000000
N2   N   0.952186454134552   0.047951299097873   0.118753858417810   1.0000000
N2   N   0.951709793902550   0.190748866724290   0.117847818601017   1.0000000
N2   N   0.951781261997668   0.333693510258425   0.116605908944098   1.0000000
N2   N   0.952392113647185   0.476502815537996   0.115947093583551   1.0000000
N2   N   0.953123784205275   0.619268302849940   0.115901383546378   1.0000000
N2   N   0.953394019615905   0.762293134709727   0.117280752790208   1.0000000
N2   N   0.095678696629638   0.904478867981575   0.118010682148401   1.0000000
N2   N   0.094755387935130   0.047027176698307   0.118521056513330   1.0000000
N2   N   0.093874709988776   0.189601332885348   0.117683040904811   1.0000000
N2   N   0.094320398607689   0.332974595087502   0.114037555371103   1.0000000
N2   N   0.095708200825002   0.476025712990654   0.112513378249441   1.0000000
N2   N   0.096155659062575   0.618798655908894   0.114154027275304   1.0000000
N2   N   0.096064949272039   0.761620163749456   0.116463215322826   1.0000000
N2   N   0.238539671400420   0.904098060581914   0.116479120818865   1.0000000
N2   N   0.237865225283237   0.046766561117734   0.117352837024705   1.0000000
N2   N   0.236222718598760   0.188551857002642   0.116090413300364   1.0000000
N2   N   0.235072996207450   0.330772858167596   0.110481953978867   1.0000000
N2   N   0.238795341399088   0.475125849159046   0.104041097016297   1.0000000
N2   N   0.239348453078266   0.618289068708406   0.106235719345880   1.0000000
N2   N   0.238963362502474   0.761200756874411   0.112274872111539   1.0000000
N2   N   0.381362189162181   0.904003315831323   0.114159677181973   1.0000000
N2   N   0.380889215895147   0.047029937393748   0.115967395946254   1.0000000
N2   N   0.380036836936731   0.189473449676459   0.112302524207438   1.0000000
N2   N   0.376837707549763   0.329626204871987   0.106635526379728   1.0000000
N2   N   0.377536011252826   0.469517783995931   0.087621448257090   1.0000000
N2   N   0.382652920500515   0.617485890672735   0.092511527838929   1.0000000
N2   N   0.381864695659732   0.760803560313421   0.106232037222403   1.0000000
N2   N   0.524132269789565   0.904438844594111   0.112505344352044   1.0000000
N2   N   0.523658601091284   0.047759339348261   0.115973861640625   1.0000000
N2   N   0.523113272646091   0.191114254609567   0.112062169449599   1.0000000
N2   N   0.521876672003505   0.334528499710115   0.099813992593281   1.0000000
N2   N   0.530615530041269   0.622587148897966   0.087606913558445   1.0000000
N2   N   0.525014559163810   0.761335554994826   0.104038291907910   1.0000000
N2   N   0.667173620731839   0.905821044469767   0.114050769452959   1.0000000
N2   N   0.666466489151722   0.048370023337500   0.116615189324033   1.0000000
N2   N   0.665980252088711   0.191490862839990   0.115569277170332   1.0000000
N2   N   0.665319780080375   0.334831527511148   0.108668174191526   1.0000000
N2   N   0.665623553045824   0.478267924311101   0.099755189751033   1.0000000
N2   N   0.670519947877784   0.623299590174434   0.106565657003881   1.0000000
N2   N   0.669366588591018   0.765062030031590   0.110453168336630   1.0000000
N2   N   0.810539410683159   0.906266271078760   0.117674459421296   1.0000000
N2   N   0.809399323369545   0.048435739873210   0.117862447875951   1.0000000
N2   N   0.808923015542778   0.191235711625362   0.117407884285077   1.0000000
N2   N   0.808665201020066   0.334184394298805   0.115554077593651   1.0000000
N2   N   0.809038256081498   0.477042260208144   0.111984420937245   1.0000000
N2   N   0.810683819834998   0.620115378106282   0.112177631976515   1.0000000
N2   N   0.811598007595197   0.763922132861648   0.116013406205886   1.0000000
As2   As   0.494920340978806   0.505211638795754   0.040611119519706   1.0000000


