data_1
_audit_creation_method   'vasp2cif'
_cell_length_a    14.93631414619966
_cell_length_b    14.936314146199727
_cell_length_c    13.341276283792837
_cell_angle_alpha    90.0
_cell_angle_beta    90.0
_cell_angle_gamma    119.99999999999984

_symmetry_space_group_name_H-M    'P 1'
loop_
_atom_site_label
_atom_site_type_symbol
_atom_site_fract_x
_atom_site_fract_y
_atom_site_fract_z
_atom_site_occupancy
C2   C   0.717065679028300   0.441761336822787   0.375000000000000   1.0000000
C2   C   0.605804366729632   0.386366096613410   0.375000000000000   1.0000000
C2   C   0.441839819197223   0.386612933134217   0.375000000000000   1.0000000
C2   C   0.552259067911656   0.439219703058079   0.375000000000000   1.0000000
N2   N   0.111110755373276   0.055556573048996   0.125068590827544   1.0000000
N2   N   0.611094481484864   0.555532917658559   0.124721267136908   1.0000000
N2   N   0.444447438433662   0.055556341392315   0.125101128630287   1.0000000
N2   N   0.944414141537083   0.555536440013146   0.125016229655177   1.0000000
N2   N   0.777785216116415   0.055540797614407   0.124987968426288   1.0000000
N2   N   0.111090840213042   0.722209668300949   0.625003252279080   1.0000000
N2   N   0.444434951050555   0.722201208840737   0.624940663019358   1.0000000
N2   N   0.277776873677610   0.222226206659897   0.624892722357554   1.0000000
N2   N   0.777771775205473   0.722219398814190   0.625038016599002   1.0000000
N2   N   0.611138304956527   0.222214013170152   0.625002134952744   1.0000000
N2   N   0.944452937361968   0.222210983259236   0.624985153069297   1.0000000
N2   N   0.277764652900614   0.722211222640023   0.125012713160519   1.0000000
N2   N   0.111099248924698   0.222212237438692   0.125046890014353   1.0000000
N2   N   0.444458540415384   0.222223524811736   0.125014408497335   1.0000000
N2   N   0.611106778936773   0.722213246152863   0.125009931828417   1.0000000
N2   N   0.944431901519900   0.722217168456222   0.124993215166414   1.0000000
N2   N   0.777803903067956   0.222194686845166   0.124938848477194   1.0000000
N2   N   0.111105250228979   0.888889615782958   0.624972160994090   1.0000000
N2   N   0.444434478938647   0.888881777878285   0.624972131361889   1.0000000
N2   N   0.277775600555259   0.388867470582542   0.624916054748896   1.0000000
N2   N   0.611118434841266   0.388842551978588   0.626004264333517   1.0000000
N2   N   0.777780772057969   0.888887003941904   0.624982453375281   1.0000000
N2   N   0.944448583571096   0.388876100430090   0.624997450422614   1.0000000
N2   N   0.111110748711445   0.388881696535657   0.125058000030171   1.0000000
N2   N   0.277769092561560   0.888886035166289   0.125031564278804   1.0000000
N2   N   0.611102815728821   0.888883666399496   0.125019524756242   1.0000000
N2   N   0.444441271752886   0.388863078160178   0.124492491828733   1.0000000
N2   N   0.944447996704232   0.888892817532765   0.125003802164614   1.0000000
N2   N   0.777791643956488   0.388836820663705   0.124622939898861   1.0000000
N2   N   0.277772772722191   0.555541944740156   0.624925805550042   1.0000000
N2   N   0.111110755373276   0.055556573048996   0.624931409172455   1.0000000
N2   N   0.611094481484864   0.555532917658559   0.625278732863092   1.0000000
N2   N   0.444447438433662   0.055556341392315   0.624898871369712   1.0000000
N2   N   0.944414141537083   0.555536440013146   0.624983770344823   1.0000000
N2   N   0.111092165088394   0.555545988696975   0.125041301687301   1.0000000
N2   N   0.777785216116415   0.055540797614407   0.625012031573712   1.0000000
N2   N   0.277778859568783   0.055562412612680   0.125104245831770   1.0000000
N2   N   0.444449215331389   0.555525016094299   0.125093221557846   1.0000000
N2   N   0.777759922954571   0.555559993794445   0.124610684400843   1.0000000
N2   N   0.611111988453746   0.055548674546173   0.125068239534739   1.0000000
N2   N   0.444449215331389   0.555525016094299   0.624906778442154   1.0000000
N2   N   0.944446353937629   0.055545674004767   0.124994277686260   1.0000000
N2   N   0.277764652900614   0.722211222640023   0.624987286839482   1.0000000
N2   N   0.111099248924698   0.222212237438692   0.624953109985647   1.0000000
N2   N   0.444458540415384   0.222223524811736   0.624985591502665   1.0000000
N2   N   0.611106778936773   0.722213246152863   0.624990068171582   1.0000000
N2   N   0.944431901519900   0.722217168456222   0.625006784833585   1.0000000
N2   N   0.777803903067956   0.222194686845166   0.625061151522806   1.0000000
N2   N   0.111090840213042   0.722209668300949   0.124996747720920   1.0000000
N2   N   0.444434951050555   0.722201208840737   0.125059336980642   1.0000000
N2   N   0.277776873677610   0.222226206659897   0.125107277642446   1.0000000
N2   N   0.777771775205473   0.722219398814190   0.124961983400999   1.0000000
N2   N   0.611138304956527   0.222214013170152   0.124997865047256   1.0000000
N2   N   0.944452937361968   0.222210983259236   0.125014846930703   1.0000000
N2   N   0.111110748711445   0.388881696535657   0.624941999969828   1.0000000
N2   N   0.277769092561560   0.888886035166289   0.624968435721195   1.0000000
N2   N   0.611102815728821   0.888883666399496   0.624980475243757   1.0000000
N2   N   0.444441271752886   0.388863078160178   0.625507508171267   1.0000000
N2   N   0.944447996704232   0.888892817532765   0.624996197835385   1.0000000
N2   N   0.111105250228979   0.888889615782958   0.125027839005910   1.0000000
N2   N   0.777791643956488   0.388836820663705   0.625377060101139   1.0000000
N2   N   0.444434478938647   0.888881777878285   0.125027868638112   1.0000000
N2   N   0.277775600555259   0.388867470582542   0.125083945251103   1.0000000
N2   N   0.277772772722191   0.555541944740156   0.125074194449959   1.0000000
N2   N   0.611118434841266   0.388842551978588   0.123995735666484   1.0000000
N2   N   0.777780772057969   0.888887003941904   0.125017546624719   1.0000000
N2   N   0.944448583571096   0.388876100430090   0.125002549577386   1.0000000
N2   N   0.111092165088394   0.555545988696975   0.624958698312699   1.0000000
N2   N   0.277778859568783   0.055562412612680   0.624895754168231   1.0000000
N2   N   0.777759922954571   0.555559993794445   0.625389315599156   1.0000000
N2   N   0.611111988453746   0.055548674546173   0.624931760465261   1.0000000
N2   N   0.944446353937629   0.055545674004767   0.625005722313747   1.0000000
N2   N   0.055737982917427   0.111219490595383   0.375000000000000   1.0000000
N2   N   0.556120994957827   0.611929332203853   0.375000000000000   1.0000000
N2   N   0.389054143159778   0.112286041541840   0.375000000000000   1.0000000
N2   N   0.889324357038531   0.612124603188751   0.375000000000000   1.0000000
N2   N   0.722097884102950   0.110285559120129   0.375000000000000   1.0000000
N2   N   0.055554652435370   0.777782611896818   0.875000000000000   1.0000000
N2   N   0.388888803438089   0.777787523080245   0.875000000000000   1.0000000
N2   N   0.222220133641846   0.277784095119534   0.875000000000000   1.0000000
N2   N   0.722217833590408   0.777782506096650   0.875000000000000   1.0000000
N2   N   0.555549899725105   0.277778950007789   0.875000000000000   1.0000000
N2   N   0.888889378780953   0.277784347464150   0.875000000000000   1.0000000
N2   N   0.222448633795804   0.777797975549955   0.375000000000000   1.0000000
N2   N   0.055794127557447   0.277787269197552   0.375000000000000   1.0000000
N2   N   0.388319444258139   0.279624403227378   0.375000000000000   1.0000000
N2   N   0.555491105009544   0.778081967050706   0.375000000000000   1.0000000
N2   N   0.889803944030985   0.779071093460950   0.375000000000000   1.0000000
N2   N   0.722514305761124   0.275588355633385   0.375000000000000   1.0000000
N2   N   0.055552152810309   0.944449362821494   0.875000000000000   1.0000000
N2   N   0.388889358611194   0.944451178969147   0.875000000000000   1.0000000
N2   N   0.222222839655252   0.444452667889158   0.875000000000000   1.0000000
N2   N   0.555551433437038   0.444455589011879   0.875000000000000   1.0000000
N2   N   0.722217889035839   0.944448575166599   0.875000000000000   1.0000000
N2   N   0.888893168308925   0.444451716080752   0.875000000000000   1.0000000
N2   N   0.056248680680788   0.444382371401806   0.375000000000000   1.0000000
N2   N   0.222701007947074   0.944903221807832   0.375000000000000   1.0000000
N2   N   0.555373056675781   0.944650845646553   0.375000000000000   1.0000000
N2   N   0.389516229441357   0.441621453444938   0.375000000000000   1.0000000
N2   N   0.889223988267567   0.944967278310685   0.375000000000000   1.0000000
N2   N   0.222220134732194   0.611117110641584   0.875000000000000   1.0000000
N2   N   0.055551748097419   0.111112923700209   0.875000000000000   1.0000000
N2   N   0.555550221787828   0.611119778870408   0.875000000000000   1.0000000
N2   N   0.388887035777189   0.111113173097226   0.875000000000000   1.0000000
N2   N   0.888891134925823   0.611115727261011   0.875000000000000   1.0000000
N2   N   0.055537299343642   0.611032489242051   0.375000000000000   1.0000000
N2   N   0.722216025653646   0.111112603553804   0.875000000000000   1.0000000
N2   N   0.222650880284084   0.111538238838268   0.375000000000000   1.0000000
N2   N   0.389233549393386   0.609848131346041   0.375000000000000   1.0000000
N2   N   0.723350862274931   0.614595093326116   0.375000000000000   1.0000000
N2   N   0.555414049727142   0.111675307315458   0.375000000000000   1.0000000
N2   N   0.388888634896452   0.611119170084616   0.875000000000000   1.0000000
N2   N   0.889073349562636   0.111139377886165   0.375000000000000   1.0000000
N2   N   0.222221777755206   0.777783778475080   0.875000000000000   1.0000000
N2   N   0.055554208547881   0.277783388395447   0.875000000000000   1.0000000
N2   N   0.388886453833232   0.277783845815200   0.875000000000000   1.0000000
N2   N   0.555551655008505   0.777786050920005   0.875000000000000   1.0000000
N2   N   0.888886875351972   0.777783337628056   0.875000000000000   1.0000000
N2   N   0.722219170398832   0.277779025122517   0.875000000000000   1.0000000
N2   N   0.056199435031104   0.778336252578687   0.375000000000000   1.0000000
N2   N   0.388988865472391   0.777439790372187   0.375000000000000   1.0000000
N2   N   0.221755205502986   0.277442680410574   0.375000000000000   1.0000000
N2   N   0.722471962265528   0.779149383793487   0.375000000000000   1.0000000
N2   N   0.555187467420347   0.278406457695176   0.375000000000000   1.0000000
N2   N   0.889251980876894   0.277471084250962   0.375000000000000   1.0000000
N2   N   0.055555577794255   0.444450841750629   0.875000000000000   1.0000000
N2   N   0.222220949758266   0.944449504292743   0.875000000000000   1.0000000
N2   N   0.555551203301332   0.944452018762774   0.875000000000000   1.0000000
N2   N   0.388889032638352   0.444455881532001   0.875000000000000   1.0000000
N2   N   0.888887053564774   0.944448463889898   0.875000000000000   1.0000000
N2   N   0.056200939599726   0.945062173413607   0.375000000000000   1.0000000
N2   N   0.722222712125157   0.444449829358674   0.875000000000000   1.0000000
N2   N   0.389014312178974   0.944818316929550   0.375000000000000   1.0000000
N2   N   0.223111733235044   0.444300935760334   0.375000000000000   1.0000000
N2   N   0.222565268554008   0.610958294103338   0.375000000000000   1.0000000
N2   N   0.722149474969186   0.944634514614397   0.375000000000000   1.0000000
N2   N   0.889307541261726   0.443897566472328   0.375000000000000   1.0000000
N2   N   0.055555071776790   0.611114271493983   0.875000000000000   1.0000000
N2   N   0.222218544527892   0.111114707541868   0.875000000000000   1.0000000
N2   N   0.722215492992159   0.611116236036065   0.875000000000000   1.0000000
N2   N   0.555550855713606   0.111113408918366   0.875000000000000   1.0000000
N2   N   0.888886657887504   0.111113498119158   0.875000000000000   1.0000000
B2   B   0.111382188054140   0.055869818472217   0.375000000000000   1.0000000
B2   B   0.612820606302728   0.557732134847690   0.375000000000000   1.0000000
B2   B   0.444430330782661   0.056051900693913   0.375000000000000   1.0000000
B2   B   0.944024329430431   0.555363103184694   0.375000000000000   1.0000000
B2   B   0.777881975897448   0.055382699556578   0.375000000000000   1.0000000
B2   B   0.111098259207676   0.722217197734632   0.875000000000000   1.0000000
B2   B   0.444447763532565   0.722231848453986   0.875000000000000   1.0000000
B2   B   0.277785021439112   0.222233607949499   0.875000000000000   1.0000000
B2   B   0.777767621332995   0.722210238132032   0.875000000000000   1.0000000
B2   B   0.611120150488488   0.222242373335983   0.875000000000000   1.0000000
B2   B   0.944434334946494   0.222229096805912   0.875000000000000   1.0000000
B2   B   0.277893898264427   0.722080291057851   0.375000000000000   1.0000000
B2   B   0.110748590378735   0.222019355880743   0.375000000000000   1.0000000
B2   B   0.444096123189050   0.223148740158813   0.375000000000000   1.0000000
B2   B   0.611402992913635   0.723088829470503   0.375000000000000   1.0000000
B2   B   0.945041025709390   0.722959321477815   0.375000000000000   1.0000000
B2   B   0.778061031595532   0.220965176346969   0.375000000000000   1.0000000
B2   B   0.111098776714965   0.888881418626378   0.875000000000000   1.0000000
B2   B   0.444446529868659   0.888897122920895   0.875000000000000   1.0000000
B2   B   0.277786209180902   0.388904335712231   0.875000000000000   1.0000000
B2   B   0.611123431864384   0.388910654798889   0.875000000000000   1.0000000
B2   B   0.777770438048469   0.888884447114377   0.875000000000000   1.0000000
B2   B   0.944433219769739   0.388898463623501   0.875000000000000   1.0000000
B2   B   0.111706974314923   0.388871441049659   0.375000000000000   1.0000000
B2   B   0.277914481287939   0.888949698937487   0.375000000000000   1.0000000
B2   B   0.611052215320985   0.889165680603340   0.375000000000000   1.0000000
B2   B   0.945093089974547   0.889750019422096   0.375000000000000   1.0000000
B2   B   0.777959798278939   0.386301499693974   0.375000000000000   1.0000000
B2   B   0.277777639893057   0.555566713598997   0.875000000000000   1.0000000
B2   B   0.111100890652054   0.055551810320214   0.875000000000000   1.0000000
B2   B   0.611115892035088   0.555558108693511   0.875000000000000   1.0000000
B2   B   0.444451337829314   0.055564430882050   0.875000000000000   1.0000000
B2   B   0.944430409600954   0.555554452407521   0.875000000000000   1.0000000
B2   B   0.111272285454098   0.555496460173787   0.375000000000000   1.0000000
B2   B   0.777770834251665   0.055560392286810   0.875000000000000   1.0000000
B2   B   0.277937198319076   0.055806379352910   0.375000000000000   1.0000000
B2   B   0.445351249473580   0.554600061378985   0.375000000000000   1.0000000
B2   B   0.777917016562511   0.558624751639365   0.375000000000000   1.0000000
B2   B   0.611056511998099   0.055730349692974   0.375000000000000   1.0000000
B2   B   0.444455712001942   0.555568234006562   0.875000000000000   1.0000000
B2   B   0.944629190014849   0.055782305993216   0.375000000000000   1.0000000
B2   B   0.277773626044853   0.722227231856882   0.875000000000000   1.0000000
B2   B   0.111104134055190   0.222227327211508   0.875000000000000   1.0000000
B2   B   0.444460048043954   0.222239296450829   0.875000000000000   1.0000000
B2   B   0.611110674024653   0.722222546634278   0.875000000000000   1.0000000
B2   B   0.944429748259333   0.722210653769485   0.875000000000000   1.0000000
B2   B   0.777773527998969   0.222235782101239   0.875000000000000   1.0000000
B2   B   0.111217662179475   0.722217850925024   0.375000000000000   1.0000000
B2   B   0.444501115621570   0.721624035428991   0.375000000000000   1.0000000
B2   B   0.276735459828946   0.222054254583170   0.375000000000000   1.0000000
B2   B   0.778794016795870   0.724706702114109   0.375000000000000   1.0000000
B2   B   0.611780000011478   0.222706921394388   0.375000000000000   1.0000000
B2   B   0.944682026172261   0.222156387936674   0.375000000000000   1.0000000
B2   B   0.111103633747119   0.388897347960114   0.875000000000000   1.0000000
B2   B   0.277775355374296   0.888889972131753   0.875000000000000   1.0000000
B2   B   0.611109666540976   0.888894667315522   0.875000000000000   1.0000000
B2   B   0.444467548491704   0.388911706392015   0.875000000000000   1.0000000
B2   B   0.944430339340365   0.888878292974342   0.875000000000000   1.0000000
B2   B   0.111532271343964   0.889268806586508   0.375000000000000   1.0000000
B2   B   0.777774987865389   0.388902760845374   0.875000000000000   1.0000000
B2   B   0.444373949525416   0.888815594530857   0.375000000000000   1.0000000
B2   B   0.277849296528842   0.388170086039732   0.375000000000000   1.0000000
B2   B   0.278102915956523   0.555322151727475   0.375000000000000   1.0000000
B2   B   0.778067277138968   0.889743275062486   0.375000000000000   1.0000000
B2   B   0.944993949921797   0.388761210817881   0.375000000000000   1.0000000
B2   B   0.111100144991517   0.555558836187428   0.875000000000000   1.0000000
B2   B   0.277778410809028   0.055557886530464   0.875000000000000   1.0000000
B2   B   0.777770890902884   0.555552731905840   0.875000000000000   1.0000000
B2   B   0.611112491594967   0.055566649273621   0.875000000000000   1.0000000
B2   B   0.944432150178417   0.055552416217055   0.875000000000000   1.0000000
B2   B   0.055529052887253   0.111094063541040   0.124990358550035   1.0000000
B2   B   0.555600727092593   0.611071292324673   0.124934947783080   1.0000000
B2   B   0.388908947686815   0.111128601858851   0.125001508052236   1.0000000
B2   B   0.888813158431399   0.611062078196609   0.125000978831716   1.0000000
B2   B   0.722251697566650   0.111124979565522   0.124997524511899   1.0000000
B2   B   0.055503164973771   0.777739070481387   0.624982103497666   1.0000000
B2   B   0.388873690728218   0.777759645412799   0.624999996147672   1.0000000
B2   B   0.222197319403484   0.277769073479887   0.625036998898056   1.0000000
B2   B   0.722230330971171   0.777754447648681   0.625005153194338   1.0000000
B2   B   0.555662204535103   0.277872447852821   0.625375711364145   1.0000000
B2   B   0.888888758178625   0.277778162361043   0.625006392847693   1.0000000
B2   B   0.222178896726444   0.777749257066759   0.124995872633743   1.0000000
B2   B   0.055531388704202   0.277770162176825   0.125007076692931   1.0000000
B2   B   0.388942293382689   0.277828430090019   0.124718062132418   1.0000000
B2   B   0.555569705531562   0.777762756816940   0.125008127826185   1.0000000
B2   B   0.888862907937249   0.777742726088074   0.125000385079998   1.0000000
B2   B   0.722283239028378   0.277812234439062   0.124888897352178   1.0000000
B2   B   0.055527195077230   0.944417594192324   0.624994040395874   1.0000000
B2   B   0.388880928798900   0.944435636475842   0.624992116980714   1.0000000
B2   B   0.222203258076056   0.444431073932653   0.624977557861105   1.0000000
B2   B   0.555624990251895   0.444388846326846   0.625311507007081   1.0000000
B2   B   0.722230664270619   0.944438120140687   0.625001916019722   1.0000000
B2   B   0.888842821474853   0.444418123797516   0.625005743589993   1.0000000
B2   B   0.055514616877064   0.444431202254058   0.125029707943668   1.0000000
B2   B   0.222194112557408   0.944420595924784   0.125007799461636   1.0000000
B2   B   0.555562366586336   0.944443490192847   0.125005671351635   1.0000000
B2   B   0.388936967955132   0.444407701278308   0.124822238656195   1.0000000
B2   B   0.888881273377312   0.944426874426544   0.124998433272162   1.0000000
B2   B   0.722207946402764   0.444412894695187   0.124899591403034   1.0000000
B2   B   0.222183668182045   0.611093037796430   0.624986202692131   1.0000000
B2   B   0.055529052887253   0.111094063541040   0.625009641449965   1.0000000
B2   B   0.555600727092593   0.611071292324673   0.625065052216920   1.0000000
B2   B   0.388908947686815   0.111128601858851   0.624998491947765   1.0000000
B2   B   0.888813158431399   0.611062078196609   0.624999021168283   1.0000000
B2   B   0.055483346201827   0.611077610594781   0.125035815251968   1.0000000
B2   B   0.722251697566650   0.111124979565522   0.625002475488101   1.0000000
B2   B   0.222205549987863   0.111099332475289   0.125010979418205   1.0000000
B2   B   0.388892206958678   0.611086811708759   0.125029579885345   1.0000000
B2   B   0.722218544436328   0.611058072326614   0.124868032046905   1.0000000
B2   B   0.555596502246600   0.111139997797543   0.125020400994020   1.0000000
B2   B   0.388892206958678   0.611086811708759   0.624970420114654   1.0000000
B2   B   0.888888016072213   0.111106845793267   0.124991546002197   1.0000000
B2   B   0.222178896726444   0.777749257066759   0.625004127366257   1.0000000
B2   B   0.055531388704202   0.277770162176825   0.624992923307069   1.0000000
B2   B   0.388942293382689   0.277828430090019   0.625281937867582   1.0000000
B2   B   0.555569705531562   0.777762756816940   0.624991872173815   1.0000000
B2   B   0.888862907937249   0.777742726088074   0.624999614920002   1.0000000
B2   B   0.722283239028378   0.277812234439062   0.625111102647823   1.0000000
B2   B   0.055503164973771   0.777739070481387   0.125017896502333   1.0000000
B2   B   0.388873690728218   0.777759645412799   0.125000003852327   1.0000000
B2   B   0.222197319403484   0.277769073479887   0.124963001101944   1.0000000
B2   B   0.722230330971171   0.777754447648681   0.124994846805662   1.0000000
B2   B   0.555662204535103   0.277872447852821   0.124624288635856   1.0000000
B2   B   0.888888758178625   0.277778162361043   0.124993607152307   1.0000000
B2   B   0.055514616877064   0.444431202254058   0.624970292056332   1.0000000
B2   B   0.222194112557408   0.944420595924784   0.624992200538364   1.0000000
B2   B   0.555562366586336   0.944443490192847   0.624994328648365   1.0000000
B2   B   0.388936967955132   0.444407701278308   0.625177761343805   1.0000000
B2   B   0.888881273377312   0.944426874426544   0.625001566727845   1.0000000
B2   B   0.055527195077230   0.944417594192324   0.125005959604125   1.0000000
B2   B   0.722207946402764   0.444412894695187   0.625100408596966   1.0000000
B2   B   0.388880928798900   0.944435636475842   0.125007883019286   1.0000000
B2   B   0.222203258076056   0.444431073932653   0.125022442138894   1.0000000
B2   B   0.222183668182045   0.611093037796430   0.125013797307869   1.0000000
B2   B   0.555624990251895   0.444388846326846   0.124688492992912   1.0000000
B2   B   0.722230664270619   0.944438120140687   0.124998083980271   1.0000000
B2   B   0.888842821474853   0.444418123797516   0.124994256410008   1.0000000
B2   B   0.055483346201827   0.611077610594781   0.624964184748032   1.0000000
B2   B   0.222205549987863   0.111099332475289   0.624989020581795   1.0000000
B2   B   0.722218544436328   0.611058072326614   0.625131967953095   1.0000000
B2   B   0.555596502246600   0.111139997797543   0.624979599005979   1.0000000
B2   B   0.888888016072213   0.111106845793267   0.625008453997804   1.0000000


