data_1
_audit_creation_method   'vasp2cif'
_cell_length_a    17.52789999999977
_cell_length_b    17.52789999999977
_cell_length_c    15.0
_cell_angle_alpha    90.0
_cell_angle_beta    90.0
_cell_angle_gamma    119.99999999999916

_symmetry_space_group_name_H-M    'P 1'
loop_
_atom_site_label
_atom_site_type_symbol
_atom_site_fract_x
_atom_site_fract_y
_atom_site_fract_z
_atom_site_occupancy
Se2   Se   0.503021897518175   0.496979504398816   0.111196404239572   1.0000000
B2   B   0.905978798258537   0.953458525059303   0.111104852800326   1.0000000
B2   B   0.904349296760415   0.095652724435601   0.111110860602383   1.0000000
B2   B   0.903816903488446   0.238440058845573   0.111154109201798   1.0000000
B2   B   0.903918472146950   0.381270333638710   0.111040314514813   1.0000000
B2   B   0.905122196403232   0.524170103274565   0.111046084414071   1.0000000
B2   B   0.907276260046012   0.667592743401781   0.111150553643155   1.0000000
B2   B   0.908203593014122   0.811680564417469   0.111082976290862   1.0000000
B2   B   0.048291636214668   0.951710384981332   0.111060455790051   1.0000000
B2   B   0.046543496136657   0.094023222937475   0.111104852800326   1.0000000
B2   B   0.046134635602274   0.237305297208947   0.111092423442326   1.0000000
B2   B   0.046768323525602   0.380459654754147   0.111061858701515   1.0000000
B2   B   0.048236573972807   0.523259112877803   0.111060468576881   1.0000000
B2   B   0.049225689284310   0.666141468727933   0.111222538668878   1.0000000
B2   B   0.049345072927828   0.809135358538920   0.111139094513641   1.0000000
B2   B   0.190866662657060   0.950656948268136   0.111139094513641   1.0000000
B2   B   0.188321456778563   0.091798428181929   0.111082976290862   1.0000000
B2   B   0.187010227911907   0.234544541334883   0.110995731235496   1.0000000
B2   B   0.188649758256002   0.379042182745714   0.111011579839196   1.0000000
B2   B   0.191610439374534   0.522322538836110   0.111121667556420   1.0000000
B2   B   0.192143668938231   0.665284528886207   0.111245014468345   1.0000000
B2   B   0.191826106186293   0.808175915009717   0.111216558524446   1.0000000
B2   B   0.333860552469039   0.950776331911718   0.111222538668878   1.0000000
B2   B   0.332409277795209   0.092725761150010   0.111150553643155   1.0000000
B2   B   0.327473814873051   0.231080097948442   0.110754148897697   1.0000000
B2   B   0.327128237792122   0.374991958680260   0.110618564894422   1.0000000
B2   B   0.335622209237824   0.520805262880968   0.111035499210393   1.0000000
B2   B   0.335559410736940   0.664442610460133   0.111305945509630   1.0000000
B2   B   0.334717492310781   0.807858352257790   0.111245014468345   1.0000000
B2   B   0.476742908319226   0.951765447223169   0.111060468576881   1.0000000
B2   B   0.475831917922395   0.094879824792751   0.111046084414071   1.0000000
B2   B   0.474123289299051   0.237376836838170   0.110856983852376   1.0000000
B2   B   0.463493242298776   0.371409030224469   0.110552938040560   1.0000000
B2   B   0.479196758315977   0.664379811959139   0.111035499210393   1.0000000
B2   B   0.477679482360905   0.808391581821458   0.111121667556420   1.0000000
B2   B   0.619542366441911   0.953233697670425   0.111061858701515   1.0000000
B2   B   0.618731687557287   0.096083549049019   0.111040314514813   1.0000000
B2   B   0.617905434274111   0.239423455667616   0.110975439448842   1.0000000
B2   B   0.616656982309368   0.383345038886593   0.110782649202983   1.0000000
B2   B   0.628592990971490   0.536508778898285   0.110552938040560   1.0000000
B2   B   0.625010062515750   0.672873783404923   0.110618564894422   1.0000000
B2   B   0.620959838450215   0.811352262939974   0.111011579839196   1.0000000
B2   B   0.762696723987064   0.953867385593705   0.111092423442326   1.0000000
B2   B   0.761561962350442   0.096185117707513   0.111154109201798   1.0000000
B2   B   0.760953484650541   0.239048536545443   0.111188925794105   1.0000000
B2   B   0.760578565528340   0.382096586921856   0.110975439448842   1.0000000
B2   B   0.762625184357915   0.525878731897949   0.110856983852376   1.0000000
B2   B   0.768921923247579   0.672528206323866   0.110754148897697   1.0000000
B2   B   0.765457479861099   0.812991793284116   0.110995731235496   1.0000000
N2   N   0.954000037208860   0.905929025055545   0.111057714245210   1.0000000
N2   N   0.952064772475820   0.047936629442197   0.111092438619047   1.0000000
N2   N   0.951227502135417   0.190566255793116   0.111097642526337   1.0000000
N2   N   0.951399478952253   0.333522203886575   0.111063136857368   1.0000000
N2   N   0.952501942408560   0.476344322352518   0.110988871750865   1.0000000
N2   N   0.953906493939182   0.619224874177050   0.111193687234454   1.0000000
N2   N   0.954543138436724   0.762602092294202   0.111125026663704   1.0000000
N2   N   0.096034653969665   0.903966747948336   0.111053991386694   1.0000000
N2   N   0.094072376862484   0.046001364709195   0.111057714245210   1.0000000
N2   N   0.092734954782271   0.188563117718420   0.111093428622693   1.0000000
N2   N   0.093594700749041   0.332311217285501   0.111064196247916   1.0000000
N2   N   0.095759847141067   0.475532629075782   0.111017639158311   1.0000000
N2   N   0.096627502757766   0.618335311934649   0.111158584565024   1.0000000
N2   N   0.096709369888989   0.761185421608302   0.111185645576078   1.0000000
N2   N   0.238815980309704   0.903292032029043   0.111185645576078   1.0000000
N2   N   0.237399309623825   0.045458263481327   0.111125026663704   1.0000000
N2   N   0.233748681334377   0.185780320576537   0.110967382078521   1.0000000
N2   N   0.233175938100645   0.328899048012368   0.110888499468905   1.0000000
N2   N   0.238892054827883   0.474208738744104   0.111044940345981   1.0000000
N2   N   0.239854587272907   0.617566519421217   0.111260340648290   1.0000000
N2   N   0.239488433152935   0.760512968765102   0.111251129470024   1.0000000
N2   N   0.381666089983371   0.903373899160280   0.111158584565024   1.0000000
N2   N   0.380776527740947   0.046094907978806   0.111193687234454   1.0000000
N2   N   0.378904708612290   0.187662242351401   0.110936095013837   1.0000000
N2   N   0.371918260465539   0.324320699967111   0.110370672853649   1.0000000
N2   N   0.377223842063540   0.467741129080508   0.110624540746312   1.0000000
N2   N   0.383461753203013   0.616539648715009   0.111256333058423   1.0000000
N2   N   0.382434882496832   0.760146814645002   0.111260340648290   1.0000000
N2   N   0.524468772841167   0.904241554776868   0.111017639158311   1.0000000
N2   N   0.523657079564514   0.047499459509487   0.110988871750865   1.0000000
N2   N   0.522664249158444   0.190741655053548   0.110916987897718   1.0000000
N2   N   0.520499195839406   0.334012419326541   0.110699677472328   1.0000000
N2   N   0.532260272836468   0.622777559854470   0.110624540746312   1.0000000
N2   N   0.525792663172902   0.761109347090131   0.111044940345981   1.0000000
N2   N   0.667690184631513   0.906406701168984   0.111064196247916   1.0000000
N2   N   0.666479198030392   0.048601922965717   0.111063136857368   1.0000000
N2   N   0.665680380720041   0.191699215270036   0.111082636257344   1.0000000
N2   N   0.664669565317242   0.335331836599766   0.110887608964379   1.0000000
N2   N   0.665988982590479   0.479502206077565   0.110699677472328   1.0000000
N2   N   0.675680701949886   0.628083141452387   0.110370672853649   1.0000000
N2   N   0.671102353904647   0.766825463817319   0.110888499468905   1.0000000
N2   N   0.811438284199545   0.907266447135769   0.111093428622693   1.0000000
N2   N   0.809435146124889   0.048773899782562   0.111097642526337   1.0000000
N2   N   0.808631182075961   0.191370219841984   0.111212168274450   1.0000000
N2   N   0.808302186647902   0.334321021196991   0.111082636257344   1.0000000
N2   N   0.809259746864443   0.477337152758598   0.110916987897718   1.0000000
N2   N   0.812339159566646   0.621096693305719   0.110936095013837   1.0000000
N2   N   0.814221081341501   0.766252720583619   0.110967382078521   1.0000000


