data_1
_audit_creation_method   'vasp2cif'
_cell_length_a    14.93631414619966
_cell_length_b    14.936314146199727
_cell_length_c    13.341276283792837
_cell_angle_alpha    90.0
_cell_angle_beta    90.0
_cell_angle_gamma    119.99999999999984

_symmetry_space_group_name_H-M    'P 1'
loop_
_atom_site_label
_atom_site_type_symbol
_atom_site_fract_x
_atom_site_fract_y
_atom_site_fract_z
_atom_site_occupancy
P2   P   0.467389422182159   0.400361377757744   0.375000000000000   1.0000000
N2   N   0.111076082942691   0.055519972348174   0.125207536328498   1.0000000
N2   N   0.611043666101318   0.555513377189692   0.125625864062042   1.0000000
N2   N   0.444416374282906   0.055531172107315   0.125214564409269   1.0000000
N2   N   0.944417884782471   0.555549078478853   0.125225765179076   1.0000000
N2   N   0.777756610854208   0.055544972093770   0.125116352170404   1.0000000
N2   N   0.111088299586993   0.722210816460159   0.624848840960749   1.0000000
N2   N   0.444416374282906   0.722218535508935   0.624785435590730   1.0000000
N2   N   0.277716654634996   0.222180595205305   0.624897836143176   1.0000000
N2   N   0.777734751063832   0.722181803736532   0.624642503286365   1.0000000
N2   N   0.611066346609465   0.222206188418617   0.624695200687734   1.0000000
N2   N   0.944421160534316   0.222219797465231   0.624854361694946   1.0000000
N2   N   0.277755997261569   0.722219043890429   0.125152951659360   1.0000000
N2   N   0.111073000951029   0.222203167142179   0.125196313903991   1.0000000
N2   N   0.444396710869750   0.222192128190372   0.125228914954851   1.0000000
N2   N   0.611066346609465   0.722193491524180   0.125304799312267   1.0000000
N2   N   0.944417884782470   0.722202139636950   0.125225765179076   1.0000000
N2   N   0.777749786615292   0.222220552205537   0.125150640261850   1.0000000
N2   N   0.111086017772086   0.888863128123373   0.624841661669782   1.0000000
N2   N   0.444423853865222   0.888878593599274   0.624868018433700   1.0000000
N2   N   0.277716654634996   0.388869392763012   0.624897836143176   1.0000000
N2   N   0.611043666101318   0.388863622244952   0.624374135937960   1.0000000
N2   N   0.777749786615292   0.888862567743083   0.624849359738148   1.0000000
N2   N   0.944417066319608   0.388892104464312   0.624835275406755   1.0000000
N2   N   0.111076082942691   0.388889443927847   0.125207536328498   1.0000000
N2   N   0.277755997261569   0.888870286704468   0.125152951659359   1.0000000
N2   N   0.611085851445554   0.888877070865484   0.125113151480739   1.0000000
N2   N   0.444292698612843   0.388813015973082   0.123852066837327   1.0000000
N2   N   0.944417066319608   0.888858295188624   0.125164724593246   1.0000000
N2   N   0.777734751063832   0.388886280660631   0.125357496713636   1.0000000
N2   N   0.277745806746743   0.555555489975580   0.624779274226161   1.0000000
N2   N   0.111076082942691   0.055519972348174   0.624792463671503   1.0000000
N2   N   0.611043666101318   0.555513377189692   0.624374135937960   1.0000000
N2   N   0.444416374282906   0.055531172107315   0.624785435590730   1.0000000
N2   N   0.944417884782470   0.555549078478853   0.624774234820923   1.0000000
N2   N   0.111086017772086   0.555556222982042   0.125158338330218   1.0000000
N2   N   0.777756610854208   0.055544972093770   0.624883647829598   1.0000000
N2   N   0.277745806746743   0.055523650104499   0.125220725773839   1.0000000
N2   N   0.444396710869750   0.555537916012715   0.125228914954851   1.0000000
N2   N   0.777738477978887   0.555535905656115   0.125516065072941   1.0000000
N2   N   0.611085851445554   0.055542113913397   0.125113151480739   1.0000000
N2   N   0.444396710869750   0.555537916012715   0.624771085045148   1.0000000
N2   N   0.944421160534316   0.055534696402419   0.125145638305055   1.0000000
N2   N   0.277755997261569   0.722219043890429   0.624847048340641   1.0000000
N2   N   0.111073000951029   0.222203167142179   0.624803686096010   1.0000000
N2   N   0.444396710869750   0.222192128190372   0.624771085045148   1.0000000
N2   N   0.611066346609465   0.722193491524180   0.624695200687734   1.0000000
N2   N   0.944417884782471   0.722202139636950   0.624774234820923   1.0000000
N2   N   0.777749786615292   0.222220552205537   0.624849359738148   1.0000000
N2   N   0.111088299586993   0.722210816460159   0.125151159039254   1.0000000
N2   N   0.444416374282906   0.722218535508935   0.125214564409269   1.0000000
N2   N   0.277716654634996   0.222180595205305   0.125102163856825   1.0000000
N2   N   0.777734751063832   0.722181803736532   0.125357496713636   1.0000000
N2   N   0.611066346609465   0.222206188418617   0.125304799312267   1.0000000
N2   N   0.944421160534316   0.222219797465231   0.125145638305055   1.0000000
N2   N   0.111076082942691   0.388889443927847   0.624792463671503   1.0000000
N2   N   0.277755997261569   0.888870286704468   0.624847048340641   1.0000000
N2   N   0.611085851445554   0.888877070865484   0.624886848519259   1.0000000
N2   N   0.444292698612843   0.388813015973082   0.626147933162672   1.0000000
N2   N   0.944417066319608   0.888858295188624   0.624835275406755   1.0000000
N2   N   0.111086017772086   0.888863128123373   0.125158338330218   1.0000000
N2   N   0.777734751063832   0.388886280660631   0.624642503286365   1.0000000
N2   N   0.444423853865222   0.888878593599274   0.125131981566301   1.0000000
N2   N   0.277716654634996   0.388869392763012   0.125102163856825   1.0000000
N2   N   0.277745806746743   0.555555489975580   0.125220725773839   1.0000000
N2   N   0.611043666101318   0.388863622244952   0.125625864062042   1.0000000
N2   N   0.777749786615292   0.888862567743083   0.125150640261850   1.0000000
N2   N   0.944417066319608   0.388892104464312   0.125164724593246   1.0000000
N2   N   0.111086017772086   0.555556222982042   0.624841661669782   1.0000000
N2   N   0.277745806746743   0.055523650104498   0.624779274226161   1.0000000
N2   N   0.777738477978887   0.555535905656115   0.624483934927058   1.0000000
N2   N   0.611085851445554   0.055542113913397   0.624886848519259   1.0000000
N2   N   0.944421160534316   0.055534696402419   0.624854361694946   1.0000000
N2   N   0.055519167046640   0.111123145847210   0.375000000000000   1.0000000
N2   N   0.554643434094783   0.611924843928662   0.375000000000000   1.0000000
N2   N   0.387906613921425   0.108482193447876   0.375000000000000   1.0000000
N2   N   0.888362958378323   0.610848145855833   0.375000000000000   1.0000000
N2   N   0.722204572813541   0.110912154807084   0.375000000000000   1.0000000
N2   N   0.055558675506114   0.777781617725503   0.875000000000000   1.0000000
N2   N   0.388901336993863   0.777783145216312   0.875000000000000   1.0000000
N2   N   0.222228899617707   0.277781116475522   0.875000000000000   1.0000000
N2   N   0.722229100219838   0.777781928207034   0.875000000000000   1.0000000
N2   N   0.555563969919368   0.277784577391008   0.875000000000000   1.0000000
N2   N   0.888896850052634   0.277780122826542   0.875000000000000   1.0000000
N2   N   0.221401035403888   0.777367184368615   0.375000000000000   1.0000000
N2   N   0.055519167046640   0.277729354532766   0.375000000000000   1.0000000
N2   N   0.387846233671311   0.273111922584793   0.375000000000000   1.0000000
N2   N   0.555244597559130   0.778388879584032   0.375000000000000   1.0000000
N2   N   0.888741475353212   0.777910762181837   0.375000000000000   1.0000000
N2   N   0.722157864369989   0.277307694689112   0.375000000000000   1.0000000
N2   N   0.055559773017626   0.944449399836441   0.875000000000000   1.0000000
N2   N   0.388901336993863   0.944451525110888   0.875000000000000   1.0000000
N2   N   0.222227912845634   0.444445159141490   0.875000000000000   1.0000000
N2   N   0.555566619924760   0.444449976629041   0.875000000000000   1.0000000
N2   N   0.722229381275637   0.944448651261869   0.875000000000000   1.0000000
N2   N   0.888894204424170   0.444444117596245   0.875000000000000   1.0000000
N2   N   0.055158782281824   0.444283440159603   0.375000000000000   1.0000000
N2   N   0.221331048979415   0.943557683046107   0.375000000000000   1.0000000
N2   N   0.555304957353033   0.944319145343179   0.375000000000000   1.0000000
N2   N   0.387846233671312   0.448067644419855   0.375000000000000   1.0000000
N2   N   0.888832228572255   0.944605604623582   0.375000000000000   1.0000000
N2   N   0.722364899532901   0.444481329266839   0.375000000000000   1.0000000
N2   N   0.222228955415366   0.611111569227821   0.875000000000000   1.0000000
N2   N   0.055561522892767   0.111114614644943   0.875000000000000   1.0000000
N2   N   0.555563969919368   0.611112725861696   0.875000000000000   1.0000000
N2   N   0.388899465549478   0.111119187601164   0.875000000000000   1.0000000
N2   N   0.888892360099072   0.611112846716204   0.875000000000000   1.0000000
N2   N   0.054827472087436   0.610801673247299   0.375000000000000   1.0000000
N2   N   0.722229381275637   0.111114063347107   0.875000000000000   1.0000000
N2   N   0.221709320069296   0.110373754184546   0.375000000000000   1.0000000
N2   N   0.387906613921425   0.612757753806890   0.375000000000000   1.0000000
N2   N   0.722364899532901   0.611216903599399   0.375000000000000   1.0000000
N2   N   0.555244597559129   0.110189051308430   0.375000000000000   1.0000000
N2   N   0.388899465549478   0.611113611281659   0.875000000000000   1.0000000
N2   N   0.888910142763098   0.111121738048218   0.375000000000000   1.0000000
N2   N   0.222229953694606   0.777781643513973   0.875000000000000   1.0000000
N2   N   0.055561522892767   0.277780241581161   0.875000000000000   1.0000000
N2   N   0.388896586090876   0.277779770007534   0.875000000000000   1.0000000
N2   N   0.555564929991052   0.777781845692271   0.875000000000000   1.0000000
N2   N   0.888894204424170   0.777783420161255   0.875000000000000   1.0000000
N2   N   0.722229100219838   0.277780505346140   0.875000000000000   1.0000000
N2   N   0.054827472087436   0.777359132173469   0.375000000000000   1.0000000
N2   N   0.388243080809744   0.778052984990498   0.375000000000000   1.0000000
N2   N   0.222390112187006   0.277861722760171   0.375000000000000   1.0000000
N2   N   0.722157864369989   0.778183503014221   0.375000000000000   1.0000000
N2   N   0.554643434094783   0.276051923499455   0.375000000000000   1.0000000
N2   N   0.888832228572255   0.277559957282011   0.375000000000000   1.0000000
N2   N   0.055559773017626   0.444443706514513   0.875000000000000   1.0000000
N2   N   0.222228955415366   0.944450719520875   0.875000000000000   1.0000000
N2   N   0.555564650361675   0.944448991847498   0.875000000000000   1.0000000
N2   N   0.388896586090876   0.444450149416676   0.875000000000000   1.0000000
N2   N   0.888896850052634   0.944450060559426   0.875000000000000   1.0000000
N2   N   0.055158782281824   0.944208675455548   0.375000000000000   1.0000000
N2   N   0.722226819395642   0.444446684970270   0.875000000000000   1.0000000
N2   N   0.388243080809744   0.943523429152582   0.375000000000000   1.0000000
N2   N   0.221709320069296   0.444668899218087   0.375000000000000   1.0000000
N2   N   0.221331048979416   0.611106699266650   0.375000000000000   1.0000000
N2   N   0.722204572813541   0.944625751339790   0.375000000000000   1.0000000
N2   N   0.888741475353212   0.444164046504718   0.375000000000000   1.0000000
N2   N   0.055558675506114   0.611110391113957   0.875000000000000   1.0000000
N2   N   0.222227912845634   0.111116087037479   0.875000000000000   1.0000000
N2   N   0.722226819395642   0.611113467758706   0.875000000000000   1.0000000
N2   N   0.555564929991052   0.111116417632110   0.875000000000000   1.0000000
N2   N   0.888896939913659   0.111115136623498   0.875000000000000   1.0000000
B2   B   0.110414306118101   0.055073056921953   0.375000000000000   1.0000000
B2   B   0.615109930083268   0.564204706261342   0.375000000000000   1.0000000
B2   B   0.444030799737340   0.053709507391358   0.375000000000000   1.0000000
B2   B   0.944256695355314   0.555278827795100   0.375000000000000   1.0000000
B2   B   0.777972544913613   0.055652939123475   0.375000000000000   1.0000000
B2   B   0.111122746382660   0.722228039857994   0.875000000000000   1.0000000
B2   B   0.444450259311137   0.722240654813146   0.875000000000000   1.0000000
B2   B   0.277756085235020   0.222206730188949   0.875000000000000   1.0000000
B2   B   0.777804938858169   0.722255598373977   0.875000000000000   1.0000000
B2   B   0.611127375000853   0.222206811917212   0.875000000000000   1.0000000
B2   B   0.944449325311867   0.222217933632250   0.875000000000000   1.0000000
B2   B   0.277034716270686   0.722180385744331   0.375000000000000   1.0000000
B2   B   0.110679627549561   0.222006480441448   0.375000000000000   1.0000000
B2   B   0.442946085447300   0.217466351975512   0.375000000000000   1.0000000
B2   B   0.611683821287145   0.724720366615689   0.375000000000000   1.0000000
B2   B   0.944256695355314   0.722311200893552   0.375000000000000   1.0000000
B2   B   0.778066347256093   0.221667204154010   0.375000000000000   1.0000000
B2   B   0.111115696383033   0.888894483109004   0.875000000000000   1.0000000
B2   B   0.444455181146015   0.888894257239674   0.875000000000000   1.0000000
B2   B   0.277756085235020   0.388882688379400   0.875000000000000   1.0000000
B2   B   0.611125866924782   0.388886021756761   0.875000000000000   1.0000000
B2   B   0.777798341045293   0.888918664588990   0.875000000000000   1.0000000
B2   B   0.944458834733977   0.388881369861511   0.875000000000000   1.0000000
B2   B   0.110414306118101   0.388674582529476   0.375000000000000   1.0000000
B2   B   0.277034716270686   0.888187663859692   0.375000000000000   1.0000000
B2   B   0.611280058093850   0.889575144011177   0.375000000000000   1.0000000
B2   B   0.944374238247684   0.889248916778717   0.375000000000000   1.0000000
B2   B   0.778645466715993   0.387953643207076   0.375000000000000   1.0000000
B2   B   0.277768477754900   0.555559207074401   0.875000000000000   1.0000000
B2   B   0.111100878379294   0.055552226421525   0.875000000000000   1.0000000
B2   B   0.611125866924782   0.555573178501345   0.875000000000000   1.0000000
B2   B   0.444450259311137   0.055542937831328   0.875000000000000   1.0000000
B2   B   0.944467630488112   0.555559010382020   0.875000000000000   1.0000000
B2   B   0.110356230146338   0.555327380492072   0.375000000000000   1.0000000
B2   B   0.777793794904145   0.055563564118744   0.875000000000000   1.0000000
B2   B   0.276560452122354   0.053986050268373   0.375000000000000   1.0000000
B2   B   0.442946085447300   0.558813066805123   0.375000000000000   1.0000000
B2   B   0.778623374356362   0.555978353844842   0.375000000000000   1.0000000
B2   B   0.611280058093850   0.055038247416002   0.375000000000000   1.0000000
B2   B   0.444439158850864   0.555567464228227   0.875000000000000   1.0000000
B2   B   0.944414289210693   0.055709766670674   0.375000000000000   1.0000000
B2   B   0.277782360396820   0.722228275155176   0.875000000000000   1.0000000
B2   B   0.111093679667163   0.222213506500249   0.875000000000000   1.0000000
B2   B   0.444439158850864   0.222205027955974   0.875000000000000   1.0000000
B2   B   0.611127375000853   0.722253896416968   0.875000000000000   1.0000000
B2   B   0.944467630488112   0.722241953439425   0.875000000000000   1.0000000
B2   B   0.777798341045293   0.222213009789630   0.875000000000000   1.0000000
B2   B   0.110447481351418   0.721890407342373   0.375000000000000   1.0000000
B2   B   0.444030799737340   0.723654625679318   0.375000000000000   1.0000000
B2   B   0.275956885591009   0.220751975140931   0.375000000000000   1.0000000
B2   B   0.778645466715993   0.724025156842244   0.375000000000000   1.0000000
B2   B   0.611683821287145   0.220296788004786   0.375000000000000   1.0000000
B2   B   0.944414289210693   0.222037855873354   0.375000000000000   1.0000000
B2   B   0.111100878379294   0.388881985291098   0.875000000000000   1.0000000
B2   B   0.277782360396820   0.888887418574973   0.875000000000000   1.0000000
B2   B   0.611127445607840   0.888909321509442   0.875000000000000   1.0000000
B2   B   0.444433837068205   0.388883585200766   0.875000000000000   1.0000000
B2   B   0.944458834733977   0.888910798205792   0.875000000000000   1.0000000
B2   B   0.110356230146338   0.888362182987593   0.375000000000000   1.0000000
B2   B   0.777804938858169   0.388882673817532   0.875000000000000   1.0000000
B2   B   0.444155545951081   0.888744439642204   0.375000000000000   1.0000000
B2   B   0.275956885591009   0.388538243783408   0.375000000000000   1.0000000
B2   B   0.276560452122354   0.555907735187318   0.375000000000000   1.0000000
B2   B   0.615109930083267   0.384238557155256   0.375000000000000   1.0000000
B2   B   0.778066347256093   0.889732476435407   0.375000000000000   1.0000000
B2   B   0.944374238247684   0.388458654802288   0.375000000000000   1.0000000
B2   B   0.111115696383033   0.555554546607356   0.875000000000000   1.0000000
B2   B   0.277768477754900   0.055542604013834   0.875000000000000   1.0000000
B2   B   0.777807638707264   0.555570486020302   0.875000000000000   1.0000000
B2   B   0.611127445607840   0.055551457431733   0.875000000000000   1.0000000
B2   B   0.944449325311867   0.055564725012949   0.875000000000000   1.0000000
B2   B   0.055500151259558   0.111066487209660   0.124950745745070   1.0000000
B2   B   0.555485640209722   0.611158434755199   0.124815240927280   1.0000000
B2   B   0.388794363928394   0.110965796886041   0.124885347518944   1.0000000
B2   B   0.888971305440136   0.611152319386740   0.124949669874803   1.0000000
B2   B   0.722209039738846   0.111079476943870   0.124885143231002   1.0000000
B2   B   0.055582647535084   0.777779568406258   0.625062889515549   1.0000000
B2   B   0.388831523807219   0.777793032163305   0.625074751512075   1.0000000
B2   B   0.222093617195540   0.277713475264441   0.625231701390341   1.0000000
B2   B   0.722231048286084   0.777835995177876   0.625105751015126   1.0000000
B2   B   0.555485640209722   0.277660538787866   0.625184759072722   1.0000000
B2   B   0.888892577061783   0.277772047810897   0.625081394080221   1.0000000
B2   B   0.222196711429750   0.777765022381543   0.124937039689570   1.0000000
B2   B   0.055500151259558   0.277766997383228   0.124950745745070   1.0000000
B2   B   0.388730733701984   0.277643276412639   0.124136510022145   1.0000000
B2   B   0.555507212333454   0.777830414558475   0.124880103306589   1.0000000
B2   B   0.888936493345614   0.777811934190287   0.124932085641138   1.0000000
B2   B   0.722231048286084   0.277728386441536   0.124894248984874   1.0000000
B2   B   0.055536372572657   0.944405335870013   0.625052678560514   1.0000000
B2   B   0.388831523807219   0.944371824977252   0.625074751512075   1.0000000
B2   B   0.222117979393423   0.444457555896318   0.625086328134312   1.0000000
B2   B   0.555435414894146   0.444384374113734   0.625299982704128   1.0000000
B2   B   0.722209039738846   0.944462896128312   0.625114856768997   1.0000000
B2   B   0.888936493345614   0.444457892488667   0.625067914358860   1.0000000
B2   B   0.055536372572657   0.444464370035972   0.124947321439484   1.0000000
B2   B   0.222173544984829   0.944365419674956   0.124940865702329   1.0000000
B2   B   0.555515636446485   0.944424484889906   0.124882274868148   1.0000000
B2   B   0.388730733701984   0.444420790622682   0.124136510022145   1.0000000
B2   B   0.888892577061783   0.944453862584222   0.124918605919778   1.0000000
B2   B   0.722254294183793   0.444443099202109   0.125003783431192   1.0000000
B2   B   0.222173544984829   0.611141458643206   0.625059134297674   1.0000000
B2   B   0.055500151259558   0.111066487209660   0.625049254254932   1.0000000
B2   B   0.555485640209722   0.611158434755199   0.625184759072721   1.0000000
B2   B   0.388794363928394   0.110965796886041   0.625114652481056   1.0000000
B2   B   0.888971305440136   0.611152319386740   0.625050330125198   1.0000000
B2   B   0.055582647535084   0.611136412462159   0.124937110484455   1.0000000
B2   B   0.722209039738846   0.111079476943870   0.625114856768998   1.0000000
B2   B   0.222117979393423   0.110993756830441   0.124913671865686   1.0000000
B2   B   0.388794363928394   0.611161900375698   0.124885347518944   1.0000000
B2   B   0.722254294183793   0.611144528315023   0.125003783431192   1.0000000
B2   B   0.555507212333454   0.111010131108322   0.124880103306589   1.0000000
B2   B   0.388794363928394   0.611161900375698   0.625114652481056   1.0000000
B2   B   0.888874011660588   0.111103672496965   0.124929117914130   1.0000000
B2   B   0.222196711429750   0.777765022381543   0.625062960310429   1.0000000
B2   B   0.055500151259558   0.277766997383228   0.625049254254932   1.0000000
B2   B   0.388730733701984   0.277643276412639   0.625863489977856   1.0000000
B2   B   0.555507212333454   0.777830414558475   0.625119896693409   1.0000000
B2   B   0.888936493345614   0.777811934190287   0.625067914358860   1.0000000
B2   B   0.722231048286084   0.277728386441536   0.625105751015126   1.0000000
B2   B   0.055582647535084   0.777779568406258   0.124937110484455   1.0000000
B2   B   0.388831523807219   0.777793032163305   0.124925248487926   1.0000000
B2   B   0.222093617195540   0.277713475264441   0.124768298609660   1.0000000
B2   B   0.722231048286084   0.777835995177876   0.124894248984874   1.0000000
B2   B   0.555485640209722   0.277660538787866   0.124815240927280   1.0000000
B2   B   0.888892577061783   0.277772047810897   0.124918605919778   1.0000000
B2   B   0.055536372572657   0.444464370035972   0.625052678560514   1.0000000
B2   B   0.222173544984829   0.944365419674956   0.625059134297674   1.0000000
B2   B   0.555515636446485   0.944424484889906   0.625117725131850   1.0000000
B2   B   0.388730733701984   0.444420790622682   0.625863489977856   1.0000000
B2   B   0.888892577061783   0.944453862584222   0.625081394080221   1.0000000
B2   B   0.055536372572657   0.944405335870013   0.124947321439484   1.0000000
B2   B   0.722254294183793   0.444443099202109   0.624996216568809   1.0000000
B2   B   0.388831523807219   0.944371824977252   0.124925248487926   1.0000000
B2   B   0.222117979393423   0.444457555896318   0.124913671865686   1.0000000
B2   B   0.222173544984829   0.611141458643206   0.124940865702329   1.0000000
B2   B   0.555435414894146   0.444384374113734   0.124700017295866   1.0000000
B2   B   0.722209039738846   0.944462896128312   0.124885143231002   1.0000000
B2   B   0.888936493345614   0.444457892488667   0.124932085641138   1.0000000
B2   B   0.055582647535084   0.611136412462159   0.625062889515549   1.0000000
B2   B   0.222117979393423   0.110993756830441   0.625086328134312   1.0000000
B2   B   0.722254294183793   0.611144528315023   0.624996216568809   1.0000000
B2   B   0.555507212333454   0.111010131108322   0.625119896693409   1.0000000
B2   B   0.888874011660588   0.111103672496965   0.625070882085874   1.0000000


