data_1
_audit_creation_method   'vasp2cif'
_cell_length_a    17.52789999999977
_cell_length_b    17.52789999999977
_cell_length_c    15.0
_cell_angle_alpha    90.0
_cell_angle_beta    90.0
_cell_angle_gamma    119.99999999999916

_symmetry_space_group_name_H-M    'P 1'
loop_
_atom_site_label
_atom_site_type_symbol
_atom_site_fract_x
_atom_site_fract_y
_atom_site_fract_z
_atom_site_occupancy
B2   B   0.904566253615327   0.952177162208555   0.122741975410591   1.0000000
B2   B   0.904835301597066   0.095166262350141   0.123214875344788   1.0000000
B2   B   0.904944130472279   0.238109898467371   0.120414747812664   1.0000000
B2   B   0.905007309310882   0.380996355113400   0.115919787035022   1.0000000
B2   B   0.904606163907543   0.523757825458482   0.113012287365166   1.0000000
B2   B   0.903857410301646   0.666303098126223   0.114218377715547   1.0000000
B2   B   0.903310445292619   0.808411863413392   0.118513935438080   1.0000000
B2   B   0.047485727707289   0.952516335580331   0.120436894560755   1.0000000
B2   B   0.047824715959009   0.095436431092662   0.122755234244990   1.0000000
B2   B   0.047882904688259   0.238351706105777   0.121455749986057   1.0000000
B2   B   0.047715739961051   0.381183149157341   0.116743698774765   1.0000000
B2   B   0.047513923948349   0.523978715794635   0.113072366939783   1.0000000
B2   B   0.047314684317996   0.666738693712177   0.113001593085730   1.0000000
B2   B   0.047156939758454   0.809516406527359   0.116348189998503   1.0000000
B2   B   0.190488797506328   0.952846548020007   0.116354066068621   1.0000000
B2   B   0.191586892380464   0.096688663233195   0.118527141970562   1.0000000
B2   B   0.190783625213818   0.238692474609625   0.119033579940098   1.0000000
B2   B   0.190423864117399   0.381394761668195   0.112554190720355   1.0000000
B2   B   0.190229379633315   0.524042563825246   0.108048303075618   1.0000000
B2   B   0.190454731751340   0.666835137018056   0.108562693663209   1.0000000
B2   B   0.190264399910506   0.809739810927475   0.112430715540806   1.0000000
B2   B   0.333263294561314   0.952685298122987   0.112999424117999   1.0000000
B2   B   0.333699118325249   0.096145322164741   0.114222514241232   1.0000000
B2   B   0.336095960720884   0.241452457554501   0.112332310052702   1.0000000
B2   B   0.331659698771591   0.381735274409131   0.098440557154548   1.0000000
B2   B   0.331781427814711   0.522678224154319   0.087471966864220   1.0000000
B2   B   0.333521089256522   0.666480131007296   0.098584968837053   1.0000000
B2   B   0.333166228675975   0.809545754891105   0.108562531570188   1.0000000
B2   B   0.476023704900051   0.952487904599586   0.113071992394418   1.0000000
B2   B   0.476243913021691   0.095395213192508   0.113016649773897   1.0000000
B2   B   0.476688175124177   0.238469356312024   0.110318597507907   1.0000000
B2   B   0.482324046464239   0.385297320862194   0.104723781332089   1.0000000
B2   B   0.477320286088126   0.668217582280773   0.087484496366387   1.0000000
B2   B   0.475958635084859   0.809772433691594   0.108052626738799   1.0000000
B2   B   0.618817940431616   0.952284448589228   0.116736121491021   1.0000000
B2   B   0.619007321817508   0.094996515048361   0.115915341046728   1.0000000
B2   B   0.619281343940405   0.237568230709039   0.112269938524441   1.0000000
B2   B   0.620160807006666   0.379843492967342   0.108404373353331   1.0000000
B2   B   0.614705871112118   0.517678781693455   0.104731008390816   1.0000000
B2   B   0.618265033184374   0.668341706592147   0.098458527807115   1.0000000
B2   B   0.618604988174727   0.809574738894688   0.112553843838563   1.0000000
B2   B   0.761649366423477   0.952117601732141   0.121439322767613   1.0000000
B2   B   0.761891706908435   0.095056100173837   0.120407070091442   1.0000000
B2   B   0.762098902813093   0.237904810427040   0.116646877934149   1.0000000
B2   B   0.762435210876698   0.380720582564464   0.112270864729499   1.0000000
B2   B   0.761533539797537   0.523315602293881   0.110315826918775   1.0000000
B2   B   0.758548286248354   0.663905248830381   0.112332926324099   1.0000000
B2   B   0.761309626315950   0.809219967125095   0.119023222319587   1.0000000
N2   N   0.951795605376632   0.904113275663498   0.121271223014482   1.0000000
N2   N   0.952490129807192   0.047510770346607   0.123625401099951   1.0000000
N2   N   0.952507282546083   0.190475694148795   0.122527635843612   1.0000000
N2   N   0.952407609683019   0.333369697542019   0.118326255586390   1.0000000
N2   N   0.952159145655368   0.476232477384324   0.114148285471770   1.0000000
N2   N   0.951741021196248   0.618949182682892   0.113385092058028   1.0000000
N2   N   0.951522176105257   0.761420347825332   0.116579252656960   1.0000000
N2   N   0.095085932248279   0.904919084776163   0.118092807829699   1.0000000
N2   N   0.095887563468490   0.048205793147056   0.121281295574418   1.0000000
N2   N   0.095500442457470   0.190600808398731   0.122456065341435   1.0000000
N2   N   0.095159122279590   0.333493473989142   0.118124817401957   1.0000000
N2   N   0.094943119207511   0.476376334399067   0.113356604336643   1.0000000
N2   N   0.094983566623390   0.619237101559822   0.111483730086007   1.0000000
N2   N   0.094836308447457   0.762028389334302   0.113852601199677   1.0000000
N2   N   0.237978400562967   0.905167472594946   0.113851897890670   1.0000000
N2   N   0.238583297169447   0.048480315797151   0.116591475356113   1.0000000
N2   N   0.240269852401500   0.192635796052960   0.117002786461594   1.0000000
N2   N   0.237525983052722   0.333057149864084   0.114461975896674   1.0000000
N2   N   0.237316737804974   0.476380706859032   0.105336896983085   1.0000000
N2   N   0.237989200549301   0.619308983481641   0.104520478884777   1.0000000
N2   N   0.237817293263769   0.762184338261972   0.109244881142743   1.0000000
N2   N   0.380765468416694   0.905017621303637   0.111481739214671   1.0000000
N2   N   0.381054423994161   0.048262508202430   0.113388100705068   1.0000000
N2   N   0.381947130715014   0.192087490187567   0.112360625344813   1.0000000
N2   N   0.386097639269892   0.339024683115072   0.106121686414045   1.0000000
N2   N   0.372002981620874   0.470380758057998   0.072464423539093   1.0000000
N2   N   0.380834352119089   0.619165132947662   0.086540033098615   1.0000000
N2   N   0.380692630867660   0.762012090506930   0.104523628138439   1.0000000
N2   N   0.523624706720290   0.905058591588441   0.113358435345473   1.0000000
N2   N   0.523769886695236   0.047842826810475   0.114150215407903   1.0000000
N2   N   0.524102793935812   0.190821044081508   0.111619443883230   1.0000000
N2   N   0.525229568969790   0.334313166981092   0.107490838446219   1.0000000
N2   N   0.529618016642667   0.627994649586881   0.072486495116842   1.0000000
N2   N   0.523617606384934   0.762682868270359   0.105345867450654   1.0000000
N2   N   0.666507044294763   0.904840279028673   0.118109602592146   1.0000000
N2   N   0.666631308987398   0.047592439962724   0.118318922359480   1.0000000
N2   N   0.666794081463017   0.190268006450289   0.115048608088757   1.0000000
N2   N   0.667217271011149   0.332785290990839   0.110673518902710   1.0000000
N2   N   0.665689113301526   0.474773594993072   0.107497581013255   1.0000000
N2   N   0.660975760008523   0.613903375476810   0.106132357631140   1.0000000
N2   N   0.666943080018546   0.762474894428804   0.114468009010377   1.0000000
N2   N   0.809401246300820   0.904502382254272   0.122438160404371   1.0000000
N2   N   0.809525281266590   0.047493380135882   0.122511658435317   1.0000000
N2   N   0.809611870926611   0.190388822147964   0.119739632884140   1.0000000
N2   N   0.809736342522504   0.333209125819904   0.115048559041529   1.0000000
N2   N   0.809179723387011   0.475899095359529   0.111621916123540   1.0000000
N2   N   0.807913289530702   0.618054625502180   0.112358434277718   1.0000000
N2   N   0.807363274997053   0.759730739223402   0.116998067189539   1.0000000
Sn2   Sn   0.486618817634699   0.513392322733550   0.998978046323931   1.0000000


