data_1
_audit_creation_method   'vasp2cif'
_cell_length_a    14.93631414619966
_cell_length_b    14.936314146199727
_cell_length_c    13.341276283792837
_cell_angle_alpha    90.0
_cell_angle_beta    90.0
_cell_angle_gamma    119.99999999999984

_symmetry_space_group_name_H-M    'P 1'
loop_
_atom_site_label
_atom_site_type_symbol
_atom_site_fract_x
_atom_site_fract_y
_atom_site_fract_z
_atom_site_occupancy
O2   O   0.444444444444443   0.388888888888886   0.375000000000000   1.0000000
N2   N   0.111111697966293   0.055551745424077   0.125125840352293   1.0000000
N2   N   0.611107441386738   0.555549761509929   0.125408340881111   1.0000000
N2   N   0.444440047457784   0.055551745424077   0.125125840352293   1.0000000
N2   N   0.944447566359215   0.555557169993096   0.125117672833441   1.0000000
N2   N   0.777777777777779   0.055555555555557   0.125123445731342   1.0000000
N2   N   0.111111111111114   0.722222222222221   0.624872015373669   1.0000000
N2   N   0.444440047457784   0.722221635367043   0.624874159647707   1.0000000
N2   N   0.277783571823406   0.222225891946598   0.624591659118888   1.0000000
N2   N   0.777781587909259   0.722221635367043   0.624874159647707   1.0000000
N2   N   0.611102148159492   0.222231185173837   0.624829420948717   1.0000000
N2   N   0.944455340570526   0.222230509353630   0.624892219292915   1.0000000
N2   N   0.277776163340240   0.722223729699454   0.125117672833441   1.0000000
N2   N   0.111129037014352   0.222231185173837   0.125170579051283   1.0000000
N2   N   0.444442320123185   0.222225891946598   0.125408340881111   1.0000000
N2   N   0.611102148159492   0.722204296318984   0.125170579051283   1.0000000
N2   N   0.944447566359215   0.722223729699454   0.125117672833441   1.0000000
N2   N   0.777775168783104   0.222230509353630   0.125107780707084   1.0000000
N2   N   0.111109603633881   0.888885766974114   0.624882327166560   1.0000000
N2   N   0.444442530783929   0.888887932058629   0.624887473458659   1.0000000
N2   N   0.277783571823406   0.388891013210144   0.624591659118888   1.0000000
N2   N   0.611107441386738   0.388891013210144   0.624591659118888   1.0000000
N2   N   0.777775168783104   0.888877992762803   0.624892219292915   1.0000000
N2   N   0.944445401274700   0.388890802549399   0.624887473458659   1.0000000
N2   N   0.111111697966293   0.388893285875545   0.125125840352293   1.0000000
N2   N   0.277776163340240   0.888885766974114   0.125117672833441   1.0000000
N2   N   0.611102823979706   0.888877992762803   0.125107780707084   1.0000000
N2   N   0.444444444444443   0.388888888888886   0.125514662097738   1.0000000
N2   N   0.944445401274700   0.888887932058629   0.125112526541341   1.0000000
N2   N   0.777781587909259   0.388893285875545   0.125125840352293   1.0000000
N2   N   0.277773778721083   0.555559554612253   0.624811352169081   1.0000000
N2   N   0.111111697966293   0.055551745424077   0.624874159647707   1.0000000
N2   N   0.611107441386738   0.555549761509929   0.624591659118888   1.0000000
N2   N   0.444440047457784   0.055551745424077   0.624874159647707   1.0000000
N2   N   0.944447566359215   0.555557169993096   0.624882327166560   1.0000000
N2   N   0.111109603633881   0.555557169993096   0.125117672833441   1.0000000
N2   N   0.777777777777779   0.055555555555557   0.624876554268658   1.0000000
N2   N   0.277773778721083   0.055547557442173   0.125188647830926   1.0000000
N2   N   0.444442320123185   0.555549761509929   0.125408340881111   1.0000000
N2   N   0.777785775891163   0.555559554612253   0.125188647830926   1.0000000
N2   N   0.611102823979706   0.055558164550231   0.125107780707084   1.0000000
N2   N   0.444442320123185   0.555549761509929   0.624591659118888   1.0000000
N2   N   0.944455340570526   0.055558164550231   0.125107780707084   1.0000000
N2   N   0.277776163340240   0.722223729699454   0.624882327166560   1.0000000
N2   N   0.111129037014352   0.222231185173837   0.624829420948717   1.0000000
N2   N   0.444442320123185   0.222225891946598   0.624591659118888   1.0000000
N2   N   0.611102148159492   0.722204296318984   0.624829420948717   1.0000000
N2   N   0.944447566359215   0.722223729699454   0.624882327166560   1.0000000
N2   N   0.777775168783104   0.222230509353630   0.624892219292915   1.0000000
N2   N   0.111111111111114   0.722222222222221   0.125127984626331   1.0000000
N2   N   0.444440047457784   0.722221635367043   0.125125840352293   1.0000000
N2   N   0.277783571823406   0.222225891946598   0.125408340881111   1.0000000
N2   N   0.777781587909259   0.722221635367043   0.125125840352293   1.0000000
N2   N   0.611102148159492   0.222231185173837   0.125170579051283   1.0000000
N2   N   0.944455340570526   0.222230509353630   0.125107780707084   1.0000000
N2   N   0.111111697966293   0.388893285875545   0.624874159647707   1.0000000
N2   N   0.277776163340240   0.888885766974114   0.624882327166560   1.0000000
N2   N   0.611102823979706   0.888877992762803   0.624892219292915   1.0000000
N2   N   0.444444444444443   0.388888888888886   0.624485337902261   1.0000000
N2   N   0.944445401274700   0.888887932058629   0.624887473458659   1.0000000
N2   N   0.111109603633881   0.888885766974114   0.125117672833441   1.0000000
N2   N   0.777781587909259   0.388893285875545   0.624874159647707   1.0000000
N2   N   0.444442530783929   0.888887932058629   0.125112526541341   1.0000000
N2   N   0.277783571823406   0.388891013210144   0.125408340881111   1.0000000
N2   N   0.277773778721083   0.555559554612253   0.125188647830926   1.0000000
N2   N   0.611107441386738   0.388891013210144   0.125408340881111   1.0000000
N2   N   0.777775168783104   0.888877992762803   0.125107780707084   1.0000000
N2   N   0.944445401274700   0.388890802549399   0.125112526541341   1.0000000
N2   N   0.111109603633881   0.555557169993096   0.624882327166560   1.0000000
N2   N   0.277773778721083   0.055547557442173   0.624811352169081   1.0000000
N2   N   0.777785775891163   0.555559554612253   0.624811352169081   1.0000000
N2   N   0.611102823979706   0.055558164550231   0.624892219292915   1.0000000
N2   N   0.944455340570526   0.055558164550231   0.624892219292915   1.0000000
N2   N   0.055196079442334   0.110835554305203   0.375000000000000   1.0000000
N2   N   0.555998325729923   0.611996651459854   0.375000000000000   1.0000000
N2   N   0.388640937932239   0.110080379947118   0.375000000000000   1.0000000
N2   N   0.889205723814592   0.611269528573971   0.375000000000000   1.0000000
N2   N   0.722274651839627   0.111058681493709   0.375000000000000   1.0000000
N2   N   0.055554836194654   0.777778497138682   0.875000000000000   1.0000000
N2   N   0.388893663778632   0.777781166554170   0.875000000000000   1.0000000
N2   N   0.222222749461727   0.277778041397528   0.875000000000000   1.0000000
N2   N   0.722221995076590   0.777780010086861   0.875000000000000   1.0000000
N2   N   0.555555291935808   0.277778041397528   0.875000000000000   1.0000000
N2   N   0.888887646309116   0.277775292618240   0.875000000000000   1.0000000
N2   N   0.222170967452526   0.777752150392931   0.375000000000000   1.0000000
N2   N   0.055196079442334   0.277693858470467   0.375000000000000   1.0000000
N2   N   0.384564991611831   0.269129983223662   0.375000000000000   1.0000000
N2   N   0.555639474862869   0.778137253891002   0.375000000000000   1.0000000
N2   N   0.889156230400457   0.777995537920323   0.375000000000000   1.0000000
N2   N   0.722497779028133   0.277693858470467   0.375000000000000   1.0000000
N2   N   0.055552166779165   0.944445830557798   0.875000000000000   1.0000000
N2   N   0.388893663778632   0.944445830557798   0.875000000000000   1.0000000
N2   N   0.222222870581188   0.444442554347889   0.875000000000000   1.0000000
N2   N   0.555554984359635   0.444444158846478   0.875000000000000   1.0000000
N2   N   0.722223130491797   0.944446260983595   0.875000000000000   1.0000000
N2   N   0.888887502775531   0.444439669554696   0.875000000000000   1.0000000
N2   N   0.055337795413013   0.444494025813469   0.375000000000000   1.0000000
N2   N   0.222063804759365   0.944127609518737   0.375000000000000   1.0000000
N2   N   0.555602102824859   0.944467718079094   0.375000000000000   1.0000000
N2   N   0.384564991611831   0.448768341721498   0.375000000000000   1.0000000
N2   N   0.888865615254235   0.944467718079094   0.375000000000000   1.0000000
N2   N   0.723252953386217   0.444692395401089   0.375000000000000   1.0000000
N2   N   0.222222545634926   0.611110787698410   0.875000000000000   1.0000000
N2   N   0.055553323246475   0.111111338256746   0.875000000000000   1.0000000
N2   N   0.555555291935808   0.611110583871608   0.875000000000000   1.0000000
N2   N   0.388890778985440   0.111113649566635   0.875000000000000   1.0000000
N2   N   0.888888242063483   0.611110787698410   0.875000000000000   1.0000000
N2   N   0.055581182940405   0.611162365880810   0.375000000000000   1.0000000
N2   N   0.722223130491797   0.111110202841538   0.875000000000000   1.0000000
N2   N   0.221439442014872   0.110080379947118   0.375000000000000   1.0000000
N2   N   0.388640937932239   0.611893891318464   0.375000000000000   1.0000000
N2   N   0.723252953386217   0.611893891318464   0.375000000000000   1.0000000
N2   N   0.555639474862869   0.110835554305203   0.375000000000000   1.0000000
N2   N   0.388890778985440   0.611110462752148   0.875000000000000   1.0000000
N2   N   0.888784029654067   0.111058681493709   0.375000000000000   1.0000000
N2   N   0.222223660944021   0.777778497138682   0.875000000000000   1.0000000
N2   N   0.055553323246475   0.277775318323065   0.875000000000000   1.0000000
N2   N   0.388889174486851   0.277778348973701   0.875000000000000   1.0000000
N2   N   0.555558015010271   0.777780010086861   0.875000000000000   1.0000000
N2   N   0.888887502775531   0.777781166554170   0.875000000000000   1.0000000
N2   N   0.722221995076590   0.277775318323065   0.875000000000000   1.0000000
N2   N   0.055581182940405   0.777752150392931   0.375000000000000   1.0000000
N2   N   0.388839307519859   0.777995537920323   0.375000000000000   1.0000000
N2   N   0.221336681873482   0.277335007603412   0.375000000000000   1.0000000
N2   N   0.722497779028133   0.778137253891002   0.375000000000000   1.0000000
N2   N   0.555998325729923   0.277335007603412   0.375000000000000   1.0000000
N2   N   0.888865615254235   0.277731230508477   0.375000000000000   1.0000000
N2   N   0.055552166779165   0.444439669554696   0.875000000000000   1.0000000
N2   N   0.222222545634926   0.944445091269845   0.875000000000000   1.0000000
N2   N   0.555558040715096   0.944445687024212   0.875000000000000   1.0000000
N2   N   0.388889174486851   0.444444158846478   0.875000000000000   1.0000000
N2   N   0.888887646309116   0.944445687024212   0.875000000000000   1.0000000
N2   N   0.055337795413013   0.944177102932872   0.375000000000000   1.0000000
N2   N   0.722219683766701   0.444442554347889   0.875000000000000   1.0000000
N2   N   0.388839307519859   0.944177102932872   0.375000000000000   1.0000000
N2   N   0.221439442014872   0.444692395401089   0.375000000000000   1.0000000
N2   N   0.222063804759365   0.611269528573971   0.375000000000000   1.0000000
N2   N   0.564203350109674   0.448768341721498   0.375000000000000   1.0000000
N2   N   0.722274651839627   0.944549303679261   0.375000000000000   1.0000000
N2   N   0.889156230400457   0.444494025813469   0.375000000000000   1.0000000
N2   N   0.055554836194654   0.611109672389315   0.875000000000000   1.0000000
N2   N   0.222222870581188   0.111113649566635   0.875000000000000   1.0000000
N2   N   0.722219683766701   0.611110462752148   0.875000000000000   1.0000000
N2   N   0.555558015010271   0.111111338256746   0.875000000000000   1.0000000
N2   N   0.888887072349734   0.111110202841538   0.875000000000000   1.0000000
B2   B   0.110097853798492   0.054714370615449   0.375000000000000   1.0000000
B2   B   0.613129522509961   0.558974236626938   0.375000000000000   1.0000000
B2   B   0.444616516816958   0.054714370615449   0.375000000000000   1.0000000
B2   B   0.944712240708837   0.555613558875284   0.375000000000000   1.0000000
B2   B   0.777777777777779   0.055555555555557   0.375000000000000   1.0000000
B2   B   0.111111111111114   0.722222222222221   0.875000000000000   1.0000000
B2   B   0.444448685367360   0.722239444305883   0.875000000000000   1.0000000
B2   B   0.277764588496557   0.222209361248874   0.875000000000000   1.0000000
B2   B   0.777790758938524   0.722239444305883   0.875000000000000   1.0000000
B2   B   0.611122291614931   0.222211041718405   0.875000000000000   1.0000000
B2   B   0.944432288836020   0.222215107092083   0.875000000000000   1.0000000
B2   B   0.277719774458052   0.722432015166882   0.375000000000000   1.0000000
B2   B   0.109589317986934   0.221461325660131   0.375000000000000   1.0000000
B2   B   0.445844714116977   0.220203810823375   0.375000000000000   1.0000000
B2   B   0.611872007673204   0.723744015346401   0.375000000000000   1.0000000
B2   B   0.944712240708837   0.722432015166882   0.375000000000000   1.0000000
B2   B   0.777977313754629   0.221973675156445   0.375000000000000   1.0000000
B2   B   0.111105352720441   0.888882573018972   0.875000000000000   1.0000000
B2   B   0.444448814043374   0.888891073688355   0.875000000000000   1.0000000
B2   B   0.277764588496557   0.388888560581011   0.875000000000000   1.0000000
B2   B   0.611123972084461   0.388888560581011   0.875000000000000   1.0000000
B2   B   0.777782818256063   0.888901044497309   0.875000000000000   1.0000000
B2   B   0.944442259644974   0.388884519289955   0.875000000000000   1.0000000
B2   B   0.110097853798492   0.388716816516371   0.375000000000000   1.0000000
B2   B   0.277719774458052   0.888621092624491   0.375000000000000   1.0000000
B2   B   0.611359658176891   0.889336971931513   0.375000000000000   1.0000000
B2   B   0.944383672651851   0.888949660681478   0.375000000000000   1.0000000
B2   B   0.778618962717886   0.388716816516371   0.375000000000000   1.0000000
B2   B   0.277769898928054   0.555563434405281   0.875000000000000   1.0000000
B2   B   0.111093889027453   0.055542574394812   0.875000000000000   1.0000000
B2   B   0.611123972084461   0.555568744836779   0.875000000000000   1.0000000
B2   B   0.444448685367360   0.055542574394812   0.875000000000000   1.0000000
B2   B   0.944450760314356   0.555556113034798   0.875000000000000   1.0000000
B2   B   0.110901318166454   0.555613558875284   0.375000000000000   1.0000000
B2   B   0.777777777777779   0.055555555555557   0.875000000000000   1.0000000
B2   B   0.277303751575458   0.054607503150916   0.375000000000000   1.0000000
B2   B   0.445844714116977   0.558974236626938   0.375000000000000   1.0000000
B2   B   0.778725830182419   0.556029581757878   0.375000000000000   1.0000000
B2   B   0.611359658176891   0.055356019578700   0.375000000000000   1.0000000
B2   B   0.444444772752317   0.555568744836779   0.875000000000000   1.0000000
B2   B   0.943996361401815   0.055356019578700   0.375000000000000   1.0000000
B2   B   0.277777220298538   0.722227980612894   0.875000000000000   1.0000000
B2   B   0.111088750103482   0.222211041718405   0.875000000000000   1.0000000
B2   B   0.444444772752317   0.222209361248874   0.875000000000000   1.0000000
B2   B   0.611122291614931   0.722244583229854   0.875000000000000   1.0000000
B2   B   0.944450760314356   0.722227980612894   0.875000000000000   1.0000000
B2   B   0.777782818256063   0.222215107092083   0.875000000000000   1.0000000
B2   B   0.111111111111114   0.722222222222221   0.375000000000000   1.0000000
B2   B   0.444616516816958   0.723235479534844   0.375000000000000   1.0000000
B2   B   0.274359096706398   0.220203810823375   0.375000000000000   1.0000000
B2   B   0.778618962717886   0.723235479534844   0.375000000000000   1.0000000
B2   B   0.611872007673204   0.221461325660131   0.375000000000000   1.0000000
B2   B   0.943996361401815   0.221973675156445   0.375000000000000   1.0000000
B2   B   0.111093889027453   0.388884647965969   0.875000000000000   1.0000000
B2   B   0.277777220298538   0.888882573018972   0.875000000000000   1.0000000
B2   B   0.611118226241252   0.888901044497309   0.875000000000000   1.0000000
B2   B   0.444444444444443   0.388888888888886   0.875000000000000   1.0000000
B2   B   0.944442259644974   0.888891073688355   0.875000000000000   1.0000000
B2   B   0.110901318166454   0.888621092624491   0.375000000000000   1.0000000
B2   B   0.777790758938524   0.388884647965969   0.875000000000000   1.0000000
B2   B   0.444565988029627   0.888949660681478   0.375000000000000   1.0000000
B2   B   0.274359096706398   0.387488619216352   0.375000000000000   1.0000000
B2   B   0.277303751575458   0.556029581757878   0.375000000000000   1.0000000
B2   B   0.613129522509961   0.387488619216352   0.375000000000000   1.0000000
B2   B   0.777977313754629   0.889336971931513   0.375000000000000   1.0000000
B2   B   0.944383672651851   0.388767345303701   0.375000000000000   1.0000000
B2   B   0.111105352720441   0.555556113034798   0.875000000000000   1.0000000
B2   B   0.277769898928054   0.055539797856109   0.875000000000000   1.0000000
B2   B   0.777793535477227   0.555563434405281   0.875000000000000   1.0000000
B2   B   0.611118226241252   0.055550515077272   0.875000000000000   1.0000000
B2   B   0.944432288836020   0.055550515077272   0.875000000000000   1.0000000
B2   B   0.055514102216751   0.111053011387054   0.124875611733921   1.0000000
B2   B   0.555573105894538   0.611146211789069   0.124861135997385   1.0000000
B2   B   0.388879812784138   0.111045646932797   0.124901606127967   1.0000000
B2   B   0.888961024859647   0.611147179096495   0.124917739585270   1.0000000
B2   B   0.722211046682395   0.111122286650941   0.124931897613755   1.0000000
B2   B   0.055549139836221   0.777784193497114   0.625056590232869   1.0000000
B2   B   0.388859697372637   0.777774330403758   0.625087032496124   1.0000000
B2   B   0.222187121544267   0.277760227438798   0.625138864002615   1.0000000
B2   B   0.722280321946282   0.777819231116584   0.625124388266079   1.0000000
B2   B   0.555573105894538   0.277760227438798   0.625138864002615   1.0000000
B2   B   0.888888951388660   0.277777902777327   0.625080657337189   1.0000000
B2   B   0.222235053660900   0.777784193497114   0.124943409767131   1.0000000
B2   B   0.055514102216751   0.277794424163033   0.124875611733921   1.0000000
B2   B   0.388889892140185   0.277779784280378   0.125001392276635   1.0000000
B2   B   0.555538909170303   0.777819231116584   0.124875611733921   1.0000000
B2   B   0.888914633031114   0.777774330403758   0.124912967503875   1.0000000
B2   B   0.722280321946282   0.277794424163033   0.124875611733921   1.0000000
B2   B   0.055559002929578   0.944418700302215   0.625087032496124   1.0000000
B2   B   0.388859697372637   0.944418700302215   0.625087032496124   1.0000000
B2   B   0.222165834148652   0.444453520549191   0.625098393872033   1.0000000
B2   B   0.555553549052958   0.444443441193143   0.624998607723365   1.0000000
B2   B   0.722211046682395   0.944422093364796   0.625068102386246   1.0000000
B2   B   0.888914633031114   0.444473635960692   0.625087032496124   1.0000000
B2   B   0.055559002929578   0.444473635960692   0.124912967503875   1.0000000
B2   B   0.222186154236841   0.944372308473681   0.124917739585270   1.0000000
B2   B   0.555555430556008   0.944444381944669   0.124919342662811   1.0000000
B2   B   0.388889892140185   0.444443441193143   0.125001392276635   1.0000000
B2   B   0.888888951388660   0.944444381944669   0.124919342662811   1.0000000
B2   B   0.722287686400539   0.444453520549191   0.124901606127967   1.0000000
B2   B   0.222186154236841   0.611147179096495   0.625082260414730   1.0000000
B2   B   0.055514102216751   0.111053011387054   0.625124388266079   1.0000000
B2   B   0.555573105894538   0.611146211789069   0.625138864002615   1.0000000
B2   B   0.388879812784138   0.111045646932797   0.625098393872033   1.0000000
B2   B   0.888961024859647   0.611147179096495   0.625082260414730   1.0000000
B2   B   0.055549139836221   0.611098279672435   0.124943409767131   1.0000000
B2   B   0.722211046682395   0.111122286650941   0.625068102386246   1.0000000
B2   B   0.222165834148652   0.111045646932797   0.124901606127967   1.0000000
B2   B   0.388879812784138   0.611167499184684   0.124901606127967   1.0000000
B2   B   0.722287686400539   0.611167499184684   0.124901606127967   1.0000000
B2   B   0.555538909170303   0.111053011387054   0.124875611733921   1.0000000
B2   B   0.388879812784138   0.611167499184684   0.625098393872033   1.0000000
B2   B   0.888911239968533   0.111122286650941   0.124931897613755   1.0000000
B2   B   0.222235053660900   0.777784193497114   0.625056590232869   1.0000000
B2   B   0.055514102216751   0.277794424163033   0.625124388266079   1.0000000
B2   B   0.388889892140185   0.277779784280378   0.624998607723365   1.0000000
B2   B   0.555538909170303   0.777819231116584   0.625124388266079   1.0000000
B2   B   0.888914633031114   0.777774330403758   0.625087032496124   1.0000000
B2   B   0.722280321946282   0.277794424163033   0.625124388266079   1.0000000
B2   B   0.055549139836221   0.777784193497114   0.124943409767131   1.0000000
B2   B   0.388859697372637   0.777774330403758   0.124912967503875   1.0000000
B2   B   0.222187121544267   0.277760227438798   0.124861135997385   1.0000000
B2   B   0.722280321946282   0.777819231116584   0.124875611733921   1.0000000
B2   B   0.555573105894538   0.277760227438798   0.124861135997385   1.0000000
B2   B   0.888888951388660   0.277777902777327   0.124919342662811   1.0000000
B2   B   0.055559002929578   0.444473635960692   0.625087032496124   1.0000000
B2   B   0.222186154236841   0.944372308473681   0.625082260414730   1.0000000
B2   B   0.555555430556008   0.944444381944669   0.625080657337189   1.0000000
B2   B   0.388889892140185   0.444443441193143   0.624998607723365   1.0000000
B2   B   0.888888951388660   0.944444381944669   0.625080657337189   1.0000000
B2   B   0.055559002929578   0.944418700302215   0.124912967503875   1.0000000
B2   B   0.722287686400539   0.444453520549191   0.625098393872033   1.0000000
B2   B   0.388859697372637   0.944418700302215   0.124912967503875   1.0000000
B2   B   0.222165834148652   0.444453520549191   0.124901606127967   1.0000000
B2   B   0.222186154236841   0.611147179096495   0.124917739585270   1.0000000
B2   B   0.555553549052958   0.444443441193143   0.125001392276635   1.0000000
B2   B   0.722211046682395   0.944422093364796   0.124931897613755   1.0000000
B2   B   0.888914633031114   0.444473635960692   0.124912967503875   1.0000000
B2   B   0.055549139836221   0.611098279672435   0.625056590232869   1.0000000
B2   B   0.222165834148652   0.111045646932797   0.625098393872033   1.0000000
B2   B   0.722287686400539   0.611167499184684   0.625098393872033   1.0000000
B2   B   0.555538909170303   0.111053011387054   0.625124388266079   1.0000000
B2   B   0.888911239968533   0.111122286650941   0.625068102386246   1.0000000


