data_1
_audit_creation_method   'vasp2cif'
_cell_length_a    17.52789999999977
_cell_length_b    17.52789999999977
_cell_length_c    15.0
_cell_angle_alpha    90.0
_cell_angle_beta    90.0
_cell_angle_gamma    119.99999999999916

_symmetry_space_group_name_H-M    'P 1'
loop_
_atom_site_label
_atom_site_type_symbol
_atom_site_fract_x
_atom_site_fract_y
_atom_site_fract_z
_atom_site_occupancy
B2   B   0.904516272620419   0.952729247096459   0.111624404975213   1.0000000
B2   B   0.905736520660471   0.096746583249945   0.111117827514344   1.0000000
B2   B   0.905717542572402   0.239756507745964   0.111114170824382   1.0000000
B2   B   0.905139551013210   0.382255135839703   0.111216883260645   1.0000000
B2   B   0.904240698122524   0.524350530289955   0.110821330728004   1.0000000
B2   B   0.902000575096038   0.666264549001351   0.110464925221936   1.0000000
B2   B   0.902784864364865   0.808709141394478   0.110562793105777   1.0000000
B2   B   0.046649107848146   0.951208570389745   0.111176162251820   1.0000000
B2   B   0.047515386426747   0.094935862928078   0.110773463850698   1.0000000
B2   B   0.048704110594057   0.238988581080248   0.110342815287832   1.0000000
B2   B   0.049212979709114   0.382054013247533   0.110654283133939   1.0000000
B2   B   0.048917040316745   0.524220813993781   0.110841837218302   1.0000000
B2   B   0.047578640754738   0.666056483640559   0.111145324970174   1.0000000
B2   B   0.046540689763586   0.808241228792179   0.111012238729630   1.0000000
B2   B   0.189700244992124   0.950492020095023   0.111218460693359   1.0000000
B2   B   0.189686377208779   0.093508811226834   0.110604319956561   1.0000000
B2   B   0.190285790970327   0.236944722044827   0.108258990622463   1.0000000
B2   B   0.192658431682927   0.381439203968838   0.109006528864339   1.0000000
B2   B   0.193624516166506   0.524148376544624   0.109075392341842   1.0000000
B2   B   0.193246357756339   0.665936131604129   0.110297516231667   1.0000000
B2   B   0.190707706943260   0.808073133264485   0.110946796984930   1.0000000
B2   B   0.333376369123711   0.950805515584202   0.111253122230011   1.0000000
B2   B   0.332315597092282   0.092760098426523   0.110951338177976   1.0000000
B2   B   0.332302389474924   0.234755310473137   0.110068922872038   1.0000000
B2   B   0.333432859534838   0.378086686848991   0.111686941763298   1.0000000
B2   B   0.338076816762006   0.524368605307946   0.113250939759437   1.0000000
B2   B   0.340194734262867   0.665792645587041   0.107189571336698   1.0000000
B2   B   0.334868419885843   0.808238981047586   0.110528673262140   1.0000000
B2   B   0.476953917719772   0.952594502557722   0.111656275171975   1.0000000
B2   B   0.475997632356771   0.095221373039948   0.110754690823261   1.0000000
B2   B   0.474389772250463   0.237155218012853   0.109441776397543   1.0000000
B2   B   0.492240128753421   0.668740479248895   0.102297465264781   1.0000000
B2   B   0.478467011652024   0.809841525576934   0.111885973663742   1.0000000
B2   B   0.620191712040307   0.954788943673422   0.112326848365315   1.0000000
B2   B   0.619436698919004   0.096923241337764   0.111021357768171   1.0000000
B2   B   0.618585711515003   0.239515215459133   0.110325995479279   1.0000000
B2   B   0.617097952209517   0.383030605821613   0.109592350320392   1.0000000
B2   B   0.615181711082086   0.524718359672214   0.113545452418902   1.0000000
B2   B   0.607153852005136   0.669662209691844   0.100996124122890   1.0000000
B2   B   0.621466951089873   0.813920371841841   0.111689699845632   1.0000000
B2   B   0.763255091219206   0.954817862139261   0.112129637046143   1.0000000
B2   B   0.762825085627318   0.097358843710413   0.111046431183924   1.0000000
B2   B   0.762164564862755   0.239896946464868   0.111009578842134   1.0000000
B2   B   0.760828968492180   0.382347345174759   0.110487168172514   1.0000000
B2   B   0.759916213616517   0.524723916287369   0.108917182851873   1.0000000
B2   B   0.755120075441961   0.666411479178674   0.107207665757206   1.0000000
B2   B   0.760869813603167   0.810354266407548   0.111025413926957   1.0000000
C2   C   0.472809674790290   0.378319024199006   0.113524222571758   1.0000000
C2   C   0.468751920105898   0.513901469992596   0.147610574346224   1.0000000
C2   C   0.515129935641944   0.469075837198188   0.125231627023538   1.0000000
N2   N   0.951421597082327   0.904233343342262   0.111289848858401   1.0000000
N2   N   0.952585460415362   0.048172759027674   0.111222326210234   1.0000000
N2   N   0.953492466428796   0.192025013752235   0.110984575460658   1.0000000
N2   N   0.953502799524546   0.334936684445818   0.111238463039566   1.0000000
N2   N   0.952995471908610   0.477301750595444   0.111152344945686   1.0000000
N2   N   0.951410864851797   0.619321736078107   0.111062164637288   1.0000000
N2   N   0.950907390812161   0.761353117947654   0.110815034509876   1.0000000
N2   N   0.094428156308783   0.903511300303763   0.111025587096943   1.0000000
N2   N   0.094701248368787   0.046674548651644   0.110983020466484   1.0000000
N2   N   0.095488660709691   0.190282710383926   0.109874782314372   1.0000000
N2   N   0.097105401842760   0.334316636224395   0.110096820853376   1.0000000
N2   N   0.097573732373600   0.477147414684315   0.110187644326247   1.0000000
N2   N   0.096913854703043   0.619199759654509   0.110989444232998   1.0000000
N2   N   0.095115680800514   0.761129096158846   0.111019182639940   1.0000000
N2   N   0.238002961964652   0.903373753425084   0.111079872571105   1.0000000
N2   N   0.237311587243969   0.045846334734909   0.111301975411733   1.0000000
N2   N   0.237731656115213   0.189012177318114   0.109329831453072   1.0000000
N2   N   0.238901665840848   0.331970023141012   0.106765675036284   1.0000000
N2   N   0.241923008117595   0.476796051244270   0.109415293527548   1.0000000
N2   N   0.242984428903337   0.619116516324127   0.108941522059161   1.0000000
N2   N   0.239443973347510   0.761047988487053   0.110618870167631   1.0000000
N2   N   0.381621285293256   0.903833832321432   0.111287178844466   1.0000000
N2   N   0.380696745706894   0.046322801774903   0.111167659778375   1.0000000
N2   N   0.379795843102545   0.188081737264136   0.110128400802188   1.0000000
N2   N   0.381619211474334   0.330323335614516   0.111702946615566   1.0000000
N2   N   0.381342169813694   0.471997822715195   0.123907179604730   1.0000000
N2   N   0.391580812169513   0.618969725574714   0.104352622542091   1.0000000
N2   N   0.383534481102900   0.761144900914259   0.109525765552331   1.0000000
N2   N   0.525048843844999   0.905685985173802   0.112538585122022   1.0000000
N2   N   0.524080293724064   0.048297187057015   0.111101082092615   1.0000000
N2   N   0.523143140893743   0.191104684841337   0.109976244129906   1.0000000
N2   N   0.519727574455325   0.333433430269455   0.109009243604531   1.0000000
N2   N   0.527053269184171   0.763537747480845   0.111695271889894   1.0000000
N2   N   0.668513495189236   0.908377168430879   0.112762896279448   1.0000000
N2   N   0.667523953782777   0.049972552852131   0.111228736634944   1.0000000
N2   N   0.666646905972310   0.192311937882826   0.110837434995206   1.0000000
N2   N   0.664748758529709   0.334804774180999   0.110038743371356   1.0000000
N2   N   0.664345765697794   0.477627126477989   0.109118291369249   1.0000000
N2   N   0.657387099238065   0.619909388036320   0.104387854234296   1.0000000
N2   N   0.666131453652819   0.764237968723551   0.109957060530244   1.0000000
N2   N   0.809608521407388   0.905998937597417   0.112228238816155   1.0000000
N2   N   0.810730158424630   0.049935990615193   0.111195738605315   1.0000000
N2   N   0.810288394419327   0.192576329987088   0.110923217769133   1.0000000
N2   N   0.809329860397338   0.335065737037530   0.111115071946472   1.0000000
N2   N   0.808438577332791   0.477376140835439   0.110068827897435   1.0000000
N2   N   0.805588137143663   0.619597883867764   0.109061996183772   1.0000000
N2   N   0.807163402169398   0.761754957532087   0.109292676608091   1.0000000


