data_1
_audit_creation_method   'vasp2cif'
_cell_length_a    14.93631414619966
_cell_length_b    14.936314146199727
_cell_length_c    13.341276283792837
_cell_angle_alpha    90.0
_cell_angle_beta    90.0
_cell_angle_gamma    119.99999999999984

_symmetry_space_group_name_H-M    'P 1'
loop_
_atom_site_label
_atom_site_type_symbol
_atom_site_fract_x
_atom_site_fract_y
_atom_site_fract_z
_atom_site_occupancy
C2   C   0.553375801894073   0.443354567613704   0.375000000000000   1.0000000
N2   N   0.111164810144359   0.055589695625809   0.125309592967327   1.0000000
N2   N   0.611149498779622   0.555621678403441   0.124060271157695   1.0000000
N2   N   0.444495378055949   0.055576680683661   0.125154899141644   1.0000000
N2   N   0.944482280388490   0.555571480697339   0.124975211451090   1.0000000
N2   N   0.777841575879701   0.055587454606519   0.125038173048048   1.0000000
N2   N   0.111148650570020   0.722240991951673   0.624961970830296   1.0000000
N2   N   0.444495378055949   0.722252030705625   0.624845100858356   1.0000000
N2   N   0.277817981110158   0.222255065172106   0.624123665774815   1.0000000
N2   N   0.777822119595605   0.722263247434360   0.625224751183913   1.0000000
N2   N   0.611165971341147   0.222219578007342   0.625120815835780   1.0000000
N2   N   0.944504000936513   0.222248786728060   0.624928435294762   1.0000000
N2   N   0.277821164254484   0.722239439532276   0.125080421160129   1.0000000
N2   N   0.111155195092163   0.222244264212746   0.125419688672286   1.0000000
N2   N   0.444493835710406   0.222239636072812   0.125374809522290   1.0000000
N2   N   0.611165971341147   0.722279726667134   0.124879184164219   1.0000000
N2   N   0.944482280388490   0.722244133024487   0.124975211451090   1.0000000
N2   N   0.777840491569138   0.222236257725978   0.124986184000032   1.0000000
N2   N   0.111155963942833   0.888917744268971   0.624899904635470   1.0000000
N2   N   0.444493357347542   0.888913345340431   0.624971782959609   1.0000000
N2   N   0.277817981110158   0.388896249271382   0.624123665774815   1.0000000
N2   N   0.611149498779622   0.388861153709503   0.625939728842306   1.0000000
N2   N   0.777840491569138   0.888937567176488   0.625013815999969   1.0000000
N2   N   0.944497919348185   0.388908229037907   0.624951254283786   1.0000000
N2   N   0.111164810144359   0.388908447851879   0.125309592967327   1.0000000
N2   N   0.277821164254484   0.888915058055536   0.125080421160129   1.0000000
N2   N   0.611165513397603   0.888926671524538   0.125051074920635   1.0000000
N2   N   0.444462263142606   0.388897798237963   0.124469515408018   1.0000000
N2   N   0.944497919348185   0.888923023643607   0.125048745716213   1.0000000
N2   N   0.777822119595605   0.388892205494574   0.124775248816087   1.0000000
N2   N   0.277829590826665   0.555569192047380   0.624534445981477   1.0000000
N2   N   0.111164810144359   0.055589695625809   0.624690407032672   1.0000000
N2   N   0.611149498779622   0.555621678403441   0.625939728842306   1.0000000
N2   N   0.444495378055949   0.055576680683661   0.624845100858356   1.0000000
N2   N   0.944482280388490   0.555571480697339   0.625024788548911   1.0000000
N2   N   0.111155963942833   0.555571553007198   0.125100095364529   1.0000000
N2   N   0.777841575879701   0.055587454606519   0.624961826951952   1.0000000
N2   N   0.277829590826665   0.055593732112614   0.125465554018524   1.0000000
N2   N   0.444493835710406   0.555587532970930   0.125374809522290   1.0000000
N2   N   0.777810279929501   0.555571806631421   0.124526071347412   1.0000000
N2   N   0.611165513397603   0.055572175206392   0.125051074920635   1.0000000
N2   N   0.444493835710406   0.555587532970930   0.624625190477710   1.0000000
N2   N   0.944504000936513   0.055588547541787   0.125071564705237   1.0000000
N2   N   0.277821164254484   0.722239439532276   0.624919578839871   1.0000000
N2   N   0.111155195092163   0.222244264212746   0.624580311327714   1.0000000
N2   N   0.444493835710406   0.222239636072813   0.624625190477710   1.0000000
N2   N   0.611165971341147   0.722279726667134   0.625120815835780   1.0000000
N2   N   0.944482280388490   0.722244133024487   0.625024788548911   1.0000000
N2   N   0.777840491569138   0.222236257725978   0.625013815999969   1.0000000
N2   N   0.111148650570020   0.722240991951673   0.125038029169704   1.0000000
N2   N   0.444495378055949   0.722252030705625   0.125154899141644   1.0000000
N2   N   0.277817981110158   0.222255065172106   0.125876334225184   1.0000000
N2   N   0.777822119595605   0.722263247434360   0.124775248816087   1.0000000
N2   N   0.611165971341147   0.222219578007342   0.124879184164219   1.0000000
N2   N   0.944504000936513   0.222248786728060   0.125071564705237   1.0000000
N2   N   0.111164810144359   0.388908447851879   0.624690407032672   1.0000000
N2   N   0.277821164254484   0.888915058055536   0.624919578839871   1.0000000
N2   N   0.611165513397603   0.888926671524538   0.624948925079364   1.0000000
N2   N   0.444462263142606   0.388897798237963   0.625530484591983   1.0000000
N2   N   0.944497919348185   0.888923023643607   0.624951254283786   1.0000000
N2   N   0.111155963942833   0.888917744268971   0.125100095364529   1.0000000
N2   N   0.777822119595605   0.388892205494574   0.625224751183913   1.0000000
N2   N   0.444493357347542   0.888913345340431   0.125028217040391   1.0000000
N2   N   0.277817981110158   0.388896249271382   0.125876334225184   1.0000000
N2   N   0.277829590826665   0.555569192047380   0.125465554018524   1.0000000
N2   N   0.611149498779622   0.388861153709503   0.124060271157695   1.0000000
N2   N   0.777840491569138   0.888937567176488   0.124986184000032   1.0000000
N2   N   0.944497919348185   0.388908229037907   0.125048745716213   1.0000000
N2   N   0.111155963942833   0.555571553007198   0.624899904635470   1.0000000
N2   N   0.277829590826665   0.055593732112614   0.624534445981477   1.0000000
N2   N   0.777810279929501   0.555571806631421   0.625473928652587   1.0000000
N2   N   0.611165513397603   0.055572175206392   0.624948925079364   1.0000000
N2   N   0.944504000936513   0.055588547541787   0.624928435294762   1.0000000
N2   N   0.056582759959360   0.111667387202029   0.375000000000000   1.0000000
N2   N   0.555616982568566   0.615828788038004   0.375000000000000   1.0000000
N2   N   0.388671678523536   0.109503054104729   0.375000000000000   1.0000000
N2   N   0.886795269747917   0.610064301540626   0.375000000000000   1.0000000
N2   N   0.722887528861158   0.111071389066392   0.375000000000000   1.0000000
N2   N   0.055560760033017   0.777781146777656   0.875000000000000   1.0000000
N2   N   0.388888541367220   0.777779961474285   0.875000000000000   1.0000000
N2   N   0.222224826279827   0.277779079806582   0.875000000000000   1.0000000
N2   N   0.722225923141990   0.777781854455653   0.875000000000000   1.0000000
N2   N   0.555554293130477   0.277772255320803   0.875000000000000   1.0000000
N2   N   0.888895522336959   0.277782602688407   0.875000000000000   1.0000000
N2   N   0.221369902629351   0.777351617981343   0.375000000000000   1.0000000
N2   N   0.056582759959360   0.278248706090660   0.375000000000000   1.0000000
N2   N   0.390737941119764   0.275581973801511   0.375000000000000   1.0000000
N2   N   0.555612399186374   0.779582014909746   0.375000000000000   1.0000000
N2   N   0.887926181238471   0.777286650195460   0.375000000000000   1.0000000
N2   N   0.722662385969678   0.276965638958005   0.375000000000000   1.0000000
N2   N   0.055559730802639   0.944445636391772   0.875000000000000   1.0000000
N2   N   0.388888541367220   0.944441913226278   0.875000000000000   1.0000000
N2   N   0.222224131669560   0.444447433349433   0.875000000000000   1.0000000
N2   N   0.555555480504996   0.444444406919162   0.875000000000000   1.0000000
N2   N   0.722222712242532   0.944445641661767   0.875000000000000   1.0000000
N2   N   0.888896634740212   0.444448128920438   0.875000000000000   1.0000000
N2   N   0.055704351592643   0.444450587300397   0.375000000000000   1.0000000
N2   N   0.221726253172785   0.944013466824300   0.375000000000000   1.0000000
N2   N   0.555589714526551   0.944461523929940   0.375000000000000   1.0000000
N2   N   0.390737941119764   0.448489300651588   0.375000000000000   1.0000000
N2   N   0.889592854939123   0.945036328630747   0.375000000000000   1.0000000
N2   N   0.719461201155785   0.442782835162610   0.375000000000000   1.0000000
N2   N   0.222223672309772   0.611111973683132   0.875000000000000   1.0000000
N2   N   0.055559727686449   0.111111710327465   0.875000000000000   1.0000000
N2   N   0.555554293130477   0.611115371143011   0.875000000000000   1.0000000
N2   N   0.388888794725875   0.111105623338836   0.875000000000000   1.0000000
N2   N   0.888899046030763   0.611116189682053   0.875000000000000   1.0000000
N2   N   0.054466629359336   0.610636792470214   0.375000000000000   1.0000000
N2   N   0.722222712242532   0.111110403914099   0.875000000000000   1.0000000
N2   N   0.223523964008967   0.112030365379826   0.375000000000000   1.0000000
N2   N   0.388671678523536   0.612501957752158   0.375000000000000   1.0000000
N2   N   0.719461201155785   0.610011699326516   0.375000000000000   1.0000000
N2   N   0.555612399186374   0.109363717609964   0.375000000000000   1.0000000
N2   N   0.388888794725874   0.611116504720379   0.875000000000000   1.0000000
N2   N   0.889887436704501   0.111610385018919   0.375000000000000   1.0000000
N2   N   0.222223985559962   0.777778659446654   0.875000000000000   1.0000000
N2   N   0.055559727686449   0.277781350692312   0.875000000000000   1.0000000
N2   N   0.388888719311068   0.277772609268205   0.875000000000000   1.0000000
N2   N   0.555554049755118   0.777781243808841   0.875000000000000   1.0000000
N2   N   0.888896634740212   0.777781839153110   0.875000000000000   1.0000000
N2   N   0.722225923141990   0.277777402019674   0.875000000000000   1.0000000
N2   N   0.054466629359336   0.777163170222460   0.375000000000000   1.0000000
N2   N   0.388366898079943   0.778044566152828   0.375000000000000   1.0000000
N2   N   0.223404359722370   0.278368846527853   0.375000000000000   1.0000000
N2   N   0.722662385969678   0.779030080345008   0.375000000000000   1.0000000
N2   N   0.555616982568566   0.273121527863899   0.375000000000000   1.0000000
N2   N   0.889592854939123   0.277889859641712   0.375000000000000   1.0000000
N2   N   0.055559730802639   0.444447427744196   0.875000000000000   1.0000000
N2   N   0.222223672309772   0.944445031959974   0.875000000000000   1.0000000
N2   N   0.555552952151683   0.944443142742506   0.875000000000000   1.0000000
N2   N   0.388888719311068   0.444449443376191   0.875000000000000   1.0000000
N2   N   0.888895522336959   0.944446252981887   0.875000000000000   1.0000000
N2   N   0.055704351592643   0.944587097625582   0.375000000000000   1.0000000
N2   N   0.722227708444836   0.444446548043898   0.875000000000000   1.0000000
N2   N   0.388366898079943   0.943655665260451   0.375000000000000   1.0000000
N2   N   0.223523964008967   0.444826931962476   0.375000000000000   1.0000000
N2   N   0.221726253172785   0.611046119681823   0.375000000000000   1.0000000
N2   N   0.722887528861158   0.945149473128101   0.375000000000000   1.0000000
N2   N   0.887926181238471   0.443972864376345   0.375000000000000   1.0000000
N2   N   0.055560760033017   0.611112946588696   0.875000000000000   1.0000000
N2   N   0.222224131669560   0.111110031653463   0.875000000000000   1.0000000
N2   N   0.722227708444836   0.611114493734276   0.875000000000000   1.0000000
N2   N   0.555554049755118   0.111106139279611   0.875000000000000   1.0000000
N2   N   0.888894165759563   0.111113749546449   0.875000000000000   1.0000000
B2   B   0.111950765539908   0.056008319730158   0.375000000000000   1.0000000
B2   B   0.606147889812805   0.556620435739528   0.375000000000000   1.0000000
B2   B   0.444438295354736   0.054390464576969   0.375000000000000   1.0000000
B2   B   0.943014144781148   0.555047186879614   0.375000000000000   1.0000000
B2   B   0.778751783517628   0.056042558425482   0.375000000000000   1.0000000
B2   B   0.111111330347786   0.722222331840557   0.875000000000000   1.0000000
B2   B   0.444443089698049   0.722209672205553   0.875000000000000   1.0000000
B2   B   0.277807232893278   0.222243022829132   0.875000000000000   1.0000000
B2   B   0.777765354229201   0.722200532244388   0.875000000000000   1.0000000
B2   B   0.611101864498225   0.222237518193402   0.875000000000000   1.0000000
B2   B   0.944455002198203   0.222230300843095   0.875000000000000   1.0000000
B2   B   0.277241440686272   0.722213316808894   0.375000000000000   1.0000000
B2   B   0.112183358483211   0.222758345908266   0.375000000000000   1.0000000
B2   B   0.446000919023330   0.220612151271294   0.375000000000000   1.0000000
B2   B   0.611921713663468   0.725472352942460   0.375000000000000   1.0000000
B2   B   0.943014144781148   0.721300291234869   0.375000000000000   1.0000000
B2   B   0.778565858304178   0.222126322651713   0.375000000000000   1.0000000
B2   B   0.111116212311870   0.888892666839191   0.875000000000000   1.0000000
B2   B   0.444442236192785   0.888887784763053   0.875000000000000   1.0000000
B2   B   0.277807232893278   0.388897543397475   0.875000000000000   1.0000000
B2   B   0.611094651123008   0.388899911899243   0.875000000000000   1.0000000
B2   B   0.777775254650267   0.888876440163610   0.875000000000000   1.0000000
B2   B   0.944447289598945   0.388898587505749   0.875000000000000   1.0000000
B2   B   0.111950765539908   0.389275779143079   0.375000000000000   1.0000000
B2   B   0.277241440686272   0.888361457210707   0.375000000000000   1.0000000
B2   B   0.611707370736436   0.890074047717546   0.375000000000000   1.0000000
B2   B   0.944358978604414   0.888762479952631   0.375000000000000   1.0000000
B2   B   0.776410134759401   0.388139305280276   0.375000000000000   1.0000000
B2   B   0.277791231151650   0.555552550549715   0.875000000000000   1.0000000
B2   B   0.111127184689729   0.055563182818635   0.875000000000000   1.0000000
B2   B   0.611094651123008   0.555528072557094   0.875000000000000   1.0000000
B2   B   0.444443089698049   0.055566750825823   0.875000000000000   1.0000000
B2   B   0.944438447804131   0.555557940587117   0.875000000000000   1.0000000
B2   B   0.110483715647249   0.555435204355746   0.375000000000000   1.0000000
B2   B   0.777779463219889   0.055556398276612   0.875000000000000   1.0000000
B2   B   0.277823455207702   0.055069713650163   0.375000000000000   1.0000000
B2   B   0.446000919023330   0.558722101085373   0.375000000000000   1.0000000
B2   B   0.774870166351374   0.554101749842355   0.375000000000000   1.0000000
B2   B   0.611707370736436   0.054966656352217   0.375000000000000   1.0000000
B2   B   0.444450017866499   0.555541068730698   0.875000000000000   1.0000000
B2   B   0.945364747515420   0.056071882061927   0.375000000000000   1.0000000
B2   B   0.277778271739265   0.722219101173813   0.875000000000000   1.0000000
B2   B   0.111136915998096   0.222235124665712   0.875000000000000   1.0000000
B2   B   0.444450017866499   0.222242282469138   0.875000000000000   1.0000000
B2   B   0.611101864498225   0.722197679638146   0.875000000000000   1.0000000
B2   B   0.944438447804131   0.722213840550349   0.875000000000000   1.0000000
B2   B   0.777775254650267   0.222232147819978   0.875000000000000   1.0000000
B2   B   0.110141437299145   0.721737385316237   0.375000000000000   1.0000000
B2   B   0.444438295354736   0.723381164111103   0.375000000000000   1.0000000
B2   B   0.279926467449425   0.224266284708290   0.375000000000000   1.0000000
B2   B   0.776410134759401   0.721604162812453   0.375000000000000   1.0000000
B2   B   0.611921713663468   0.219782694054337   0.375000000000000   1.0000000
B2   B   0.945364747515420   0.222626198786827   0.375000000000000   1.0000000
B2   B   0.111127184689729   0.388897335204423   0.875000000000000   1.0000000
B2   B   0.277778271739265   0.888892503898781   0.875000000000000   1.0000000
B2   B   0.611103527270868   0.888878045343885   0.875000000000000   1.0000000
B2   B   0.444463202638912   0.388898267986120   0.875000000000000   1.0000000
B2   B   0.944447289598945   0.888882035426526   0.875000000000000   1.0000000
B2   B   0.110483715647249   0.888381844624830   0.375000000000000   1.0000000
B2   B   0.777765354229201   0.388898155318144   0.875000000000000   1.0000000
B2   B   0.444335361862890   0.888834347598112   0.375000000000000   1.0000000
B2   B   0.279926467449425   0.388993516074455   0.375000000000000   1.0000000
B2   B   0.277823455207702   0.556087074890883   0.375000000000000   1.0000000
B2   B   0.606147889812805   0.382860787406606   0.375000000000000   1.0000000
B2   B   0.778565858304178   0.889772868985795   0.375000000000000   1.0000000
B2   B   0.944358978604414   0.388929831985117   0.375000000000000   1.0000000
B2   B   0.111116212311870   0.555556878806010   0.875000000000000   1.0000000
B2   B   0.277791231151650   0.055572013935277   0.875000000000000   1.0000000
B2   B   0.777761181560074   0.555547257446705   0.875000000000000   1.0000000
B2   B   0.611103527270868   0.055558815260310   0.875000000000000   1.0000000
B2   B   0.944455002198203   0.055558034688436   0.875000000000000   1.0000000
B2   B   0.055627983652706   0.111158113858855   0.125185880331408   1.0000000
B2   B   0.555596112962742   0.611068938571722   0.124764498239994   1.0000000
B2   B   0.388982517034386   0.111229347669279   0.125360551674220   1.0000000
B2   B   0.888859563316812   0.611096448325077   0.124841898625359   1.0000000
B2   B   0.722278169705414   0.111141355010619   0.124978577736640   1.0000000
B2   B   0.055571867682387   0.777790245176044   0.625000599402062   1.0000000
B2   B   0.388947579135677   0.777787969610595   0.624973096552422   1.0000000
B2   B   0.222333217316550   0.277833275324939   0.624261590667063   1.0000000
B2   B   0.722255613782092   0.777787721267182   0.625174818404321   1.0000000
B2   B   0.555596112962742   0.277860507724363   0.625235501760006   1.0000000
B2   B   0.888938643750825   0.277800911789530   0.625013662951171   1.0000000
B2   B   0.222258692775952   0.777796013054645   0.125000254678265   1.0000000
B2   B   0.055627983652706   0.277803203127186   0.125185880331408   1.0000000
B2   B   0.389034276139965   0.277976866136962   0.125729825162887   1.0000000
B2   B   0.555609323954878   0.777789077193363   0.124984111330179   1.0000000
B2   B   0.888900259975087   0.777781882632495   0.124921138411147   1.0000000
B2   B   0.722255613782092   0.277801225848245   0.124825181595687   1.0000000
B2   B   0.055607525623315   0.944487238079591   0.624910622542363   1.0000000
B2   B   0.388947579135677   0.944492942858415   0.624973096552422   1.0000000
B2   B   0.222318306657481   0.444436985881743   0.624458922665184   1.0000000
B2   B   0.555489577493958   0.444411455413644   0.624971247583422   1.0000000
B2   B   0.722278169705414   0.944470148028132   0.625021422263360   1.0000000
B2   B   0.888900259975087   0.444451710675927   0.625078861588853   1.0000000
B2   B   0.055607525623315   0.444453620877046   0.125089377457636   1.0000000
B2   B   0.222278675315152   0.944499756874901   0.125144243770044   1.0000000
B2   B   0.555605899356954   0.944469616345145   0.124997712453437   1.0000000
B2   B   0.389034276139965   0.444390743336346   0.125729825162887   1.0000000
B2   B   0.888938643750825   0.944471065294631   0.124986337048828   1.0000000
B2   B   0.722163211652851   0.444424603210046   0.124476195167047   1.0000000
B2   B   0.222278675315152   0.611112251773587   0.624855756229956   1.0000000
B2   B   0.055627983652706   0.111158113858855   0.624814119668591   1.0000000
B2   B   0.555596112962742   0.611068938571722   0.625235501760006   1.0000000
B2   B   0.388982517034386   0.111229347669279   0.624639448325780   1.0000000
B2   B   0.888859563316812   0.611096448325077   0.625158101374641   1.0000000
B2   B   0.055571867682387   0.611114955839678   0.124999400597937   1.0000000
B2   B   0.722278169705414   0.111141355010619   0.625021422263360   1.0000000
B2   B   0.222318306657481   0.111214654109073   0.125541077334817   1.0000000
B2   B   0.388982517034386   0.611086502698450   0.125360551674220   1.0000000
B2   B   0.722163211652851   0.611071941776140   0.124476195167047   1.0000000
B2   B   0.555609323954878   0.111153580094848   0.124984111330179   1.0000000
B2   B   0.388982517034386   0.611086502698450   0.624639448325780   1.0000000
B2   B   0.888950182969840   0.111141758151595   0.124999094593271   1.0000000
B2   B   0.222258692775952   0.777796013054645   0.624999745321734   1.0000000
B2   B   0.055627983652706   0.277803203127186   0.624814119668591   1.0000000
B2   B   0.389034276139965   0.277976866136962   0.624270174837113   1.0000000
B2   B   0.555609323954878   0.777789077193363   0.625015888669822   1.0000000
B2   B   0.888900259975087   0.777781882632495   0.625078861588853   1.0000000
B2   B   0.722255613782092   0.277801225848245   0.625174818404321   1.0000000
B2   B   0.055571867682387   0.777790245176044   0.124999400597937   1.0000000
B2   B   0.388947579135677   0.777787969610595   0.125026903447578   1.0000000
B2   B   0.222333217316550   0.277833275324939   0.125738409332938   1.0000000
B2   B   0.722255613782092   0.777787721267182   0.124825181595687   1.0000000
B2   B   0.555596112962742   0.277860507724363   0.124764498239994   1.0000000
B2   B   0.888938643750825   0.277800911789530   0.124986337048828   1.0000000
B2   B   0.055607525623315   0.444453620877046   0.624910622542363   1.0000000
B2   B   0.222278675315152   0.944499756874901   0.624855756229956   1.0000000
B2   B   0.555605899356954   0.944469616345145   0.625002287546563   1.0000000
B2   B   0.389034276139965   0.444390743336346   0.624270174837113   1.0000000
B2   B   0.888938643750825   0.944471065294631   0.625013662951171   1.0000000
B2   B   0.055607525623315   0.944487238079591   0.125089377457636   1.0000000
B2   B   0.722163211652851   0.444424603210046   0.625523804832952   1.0000000
B2   B   0.388947579135677   0.944492942858415   0.125026903447578   1.0000000
B2   B   0.222318306657481   0.444436985881743   0.125541077334817   1.0000000
B2   B   0.222278675315152   0.611112251773587   0.125144243770044   1.0000000
B2   B   0.555489577493958   0.444411455413644   0.125028752416579   1.0000000
B2   B   0.722278169705414   0.944470148028132   0.124978577736640   1.0000000
B2   B   0.888900259975087   0.444451710675927   0.124921138411147   1.0000000
B2   B   0.055571867682387   0.611114955839678   0.625000599402062   1.0000000
B2   B   0.222318306657481   0.111214654109073   0.624458922665184   1.0000000
B2   B   0.722163211652851   0.611071941776140   0.625523804832952   1.0000000
B2   B   0.555609323954878   0.111153580094848   0.625015888669822   1.0000000
B2   B   0.888950182969840   0.111141758151595   0.625000905406730   1.0000000


