data_1
_audit_creation_method   'vasp2cif'
_cell_length_a    17.52789999999977
_cell_length_b    17.52789999999977
_cell_length_c    15.0
_cell_angle_alpha    90.0
_cell_angle_beta    90.0
_cell_angle_gamma    119.99999999999916

_symmetry_space_group_name_H-M    'P 1'
loop_
_atom_site_label
_atom_site_type_symbol
_atom_site_fract_x
_atom_site_fract_y
_atom_site_fract_z
_atom_site_occupancy
B2   B   0.904354398280677   0.952744527475855   0.111015830247345   1.0000000
B2   B   0.905463750655487   0.096658454003115   0.111021553488116   1.0000000
B2   B   0.905402591802164   0.239600228915131   0.111071418003478   1.0000000
B2   B   0.905065832974300   0.382174129406976   0.111034620201393   1.0000000
B2   B   0.904234788720301   0.524381046399614   0.111012121813525   1.0000000
B2   B   0.902078997571901   0.666358802439602   0.111033957767273   1.0000000
B2   B   0.902955757065450   0.809000483222435   0.111043002370392   1.0000000
B2   B   0.046495366647872   0.951078708614376   0.111006883668137   1.0000000
B2   B   0.046990515424255   0.094599969648772   0.111006441151732   1.0000000
B2   B   0.047986680241982   0.238673099840126   0.111017921164642   1.0000000
B2   B   0.048522720928694   0.381873341895067   0.111040856070771   1.0000000
B2   B   0.048621864065300   0.524192392425284   0.111031592288484   1.0000000
B2   B   0.047660084019359   0.666093305400525   0.111029686333404   1.0000000
B2   B   0.046675834717907   0.808307480484704   0.111023516914101   1.0000000
B2   B   0.189886867306562   0.950596966523375   0.111045332788287   1.0000000
B2   B   0.189073559647295   0.093011690412817   0.111048569901611   1.0000000
B2   B   0.189183791624766   0.236277372233438   0.110998076586559   1.0000000
B2   B   0.191229744550653   0.381050742863245   0.110997310917615   1.0000000
B2   B   0.192892304076311   0.523999872921615   0.111003179410058   1.0000000
B2   B   0.193373185750176   0.665849062145005   0.111013725130648   1.0000000
B2   B   0.190951302521140   0.808067477221045   0.111000429640277   1.0000000
B2   B   0.333620128085254   0.950803531944422   0.111036586073373   1.0000000
B2   B   0.332655245911950   0.093280740915361   0.111076447711771   1.0000000
B2   B   0.331022648486418   0.234521080185877   0.111010759715522   1.0000000
B2   B   0.331005865611617   0.376431382166119   0.111014711532209   1.0000000
B2   B   0.336631872494952   0.524355373286993   0.111046312733063   1.0000000
B2   B   0.340650870076740   0.665479985481277   0.111028808797239   1.0000000
B2   B   0.335253545698470   0.807973833592595   0.111005244838415   1.0000000
B2   B   0.477187666624528   0.952113891840257   0.111007715722833   1.0000000
B2   B   0.476214623901487   0.094641169309139   0.111021511201943   1.0000000
B2   B   0.475494668123219   0.236905555672472   0.111017305164401   1.0000000
B2   B   0.472540686056510   0.377019333050321   0.111076919140166   1.0000000
B2   B   0.494543857063055   0.667408715921598   0.111058439189401   1.0000000
B2   B   0.479215335873067   0.809327591049951   0.111038436365438   1.0000000
B2   B   0.620403022040568   0.954893251713839   0.111008864271396   1.0000000
B2   B   0.619543006656081   0.096730730155366   0.111004598491032   1.0000000
B2   B   0.618893241332470   0.239262405532403   0.111011305270653   1.0000000
B2   B   0.617723369022515   0.382374511769115   0.110996055483663   1.0000000
B2   B   0.617233449722092   0.527323316285515   0.111072538656153   1.0000000
B2   B   0.606376268879294   0.669971083222819   0.111055361613018   1.0000000
B2   B   0.621897347196089   0.814601432408687   0.111009096611117   1.0000000
B2   B   0.763305400060531   0.955106616269850   0.111003894319832   1.0000000
B2   B   0.762781385815907   0.097344330259380   0.111030223035118   1.0000000
B2   B   0.762215651951157   0.239757162820800   0.111031969233387   1.0000000
B2   B   0.761368770647804   0.382280735534959   0.111011027159172   1.0000000
B2   B   0.759901867934721   0.524684398721958   0.111023214976971   1.0000000
B2   B   0.755892025466869   0.667428529289748   0.111018247387865   1.0000000
B2   B   0.760732310761974   0.810780545855983   0.111035826934998   1.0000000
C2   C   0.468196257223066   0.513834728248699   0.111197446917539   1.0000000
C2   C   0.518676908286657   0.475433230514509   0.111203725826714   1.0000000
N2   N   0.951569579880455   0.904471953281242   0.111004528313063   1.0000000
N2   N   0.952261495433883   0.048109377873605   0.110993400546288   1.0000000
N2   N   0.952964889337890   0.191826069780335   0.111019648369474   1.0000000
N2   N   0.953071286029728   0.334706238612261   0.111039413020065   1.0000000
N2   N   0.952922223283073   0.477237856346500   0.111007055718260   1.0000000
N2   N   0.951711772173874   0.619448733845758   0.111005655652388   1.0000000
N2   N   0.951271570854924   0.761605850552259   0.111020872374182   1.0000000
N2   N   0.094527360276603   0.903523928708725   0.110999945293025   1.0000000
N2   N   0.094073175499066   0.046217065625582   0.111003031932839   1.0000000
N2   N   0.094332010989969   0.189680930540421   0.110987760265704   1.0000000
N2   N   0.095755118777414   0.333859948633320   0.110997903709326   1.0000000
N2   N   0.096786727368066   0.476937151845036   0.111006321745791   1.0000000
N2   N   0.096884631680428   0.619195649033378   0.111012010450446   1.0000000
N2   N   0.095317772214111   0.761186782979020   0.111005316791666   1.0000000
N2   N   0.238103916273849   0.903294210963740   0.111005119855336   1.0000000
N2   N   0.237181341267527   0.045656807098762   0.111058605302914   1.0000000
N2   N   0.235973879613812   0.187691792893602   0.110996080488408   1.0000000
N2   N   0.236315114046671   0.331069053408240   0.110984064322064   1.0000000
N2   N   0.240154266915442   0.476292319823892   0.110994352866351   1.0000000
N2   N   0.242710081909918   0.618984690225982   0.110993842578525   1.0000000
N2   N   0.239559181638452   0.760987204686527   0.110978443428707   1.0000000
N2   N   0.381735822705465   0.903646418959273   0.110995491238101   1.0000000
N2   N   0.380733479263974   0.046077198409947   0.111037657940483   1.0000000
N2   N   0.379736523041346   0.188008525105803   0.111020063286394   1.0000000
N2   N   0.377281175635890   0.328389828769777   0.110997106195573   1.0000000
N2   N   0.378779594022559   0.471570971798090   0.111044587948477   1.0000000
N2   N   0.391182393764196   0.618800438033519   0.111027622057344   1.0000000
N2   N   0.383727864255830   0.761063211487771   0.111009048010516   1.0000000
N2   N   0.525343498115397   0.905567964886781   0.111002220535346   1.0000000
N2   N   0.524244924742856   0.047682390522393   0.110984918394935   1.0000000
N2   N   0.523526017412627   0.189739787790683   0.111000578292441   1.0000000
N2   N   0.522286036009120   0.331267093245375   0.110989624719840   1.0000000
N2   N   0.527982356111550   0.764055349527086   0.111011884370327   1.0000000
N2   N   0.669055342381871   0.909342457292198   0.110984914143638   1.0000000
N2   N   0.667733165974410   0.050114957226260   0.111001361044601   1.0000000
N2   N   0.666981799630576   0.191982478479407   0.110997921293672   1.0000000
N2   N   0.666132789762993   0.334508963740042   0.110988244952611   1.0000000
N2   N   0.665333187265800   0.477857490243812   0.110988368099456   1.0000000
N2   N   0.659798310058375   0.622380386780891   0.111007300866748   1.0000000
N2   N   0.666914463050499   0.765865020454603   0.111006427228832   1.0000000
N2   N   0.809891233055275   0.906631259627684   0.111007613783450   1.0000000
N2   N   0.810800340917002   0.050239977553057   0.111002414717669   1.0000000
N2   N   0.810264106032323   0.192485109656734   0.111036233806207   1.0000000
N2   N   0.809713581612294   0.334865183066353   0.111007864945565   1.0000000
N2   N   0.808972183758332   0.477389825820538   0.111002421968749   1.0000000
N2   N   0.806309443190200   0.620025881526676   0.111010544880251   1.0000000
N2   N   0.808089104285465   0.762835441911935   0.111019725697705   1.0000000


