data_1
_audit_creation_method   'vasp2cif'
_cell_length_a    14.93631414619966
_cell_length_b    14.936314146199727
_cell_length_c    13.341276283792837
_cell_angle_alpha    90.0
_cell_angle_beta    90.0
_cell_angle_gamma    119.99999999999984

_symmetry_space_group_name_H-M    'P 1'
loop_
_atom_site_label
_atom_site_type_symbol
_atom_site_fract_x
_atom_site_fract_y
_atom_site_fract_z
_atom_site_occupancy
Sb2   Sb   0.555555555555557   0.444444444444443   0.375000000000000   1.0000000
N2   N   0.111071531313596   0.055549192151197   0.125043214067369   1.0000000
N2   N   0.611218070237348   0.555769473808022   0.121661363099230   1.0000000
N2   N   0.444455260936702   0.055577288451327   0.125189984967070   1.0000000
N2   N   0.944422711548676   0.555544739063307   0.125189984967070   1.0000000
N2   N   0.777792999211980   0.055563166272658   0.124922510290380   1.0000000
N2   N   0.111091216784599   0.722212275058956   0.624847973245742   1.0000000
N2   N   0.444455260936702   0.722211305818711   0.624810015032931   1.0000000
N2   N   0.277703814761835   0.222187376120090   0.625502187691723   1.0000000
N2   N   0.777812623879912   0.722296185238163   0.625502187691723   1.0000000
N2   N   0.611150228024922   0.222187376120090   0.625502187691723   1.0000000
N2   N   0.944436833727342   0.222207000788021   0.625077489709618   1.0000000
N2   N   0.277787724941035   0.722212275058956   0.125152026754258   1.0000000
N2   N   0.111062979017542   0.222198156175434   0.124906469875156   1.0000000
N2   N   0.444472475093890   0.222278283521121   0.124601288101984   1.0000000
N2   N   0.611150228024922   0.722296185238163   0.124497812308267   1.0000000
N2   N   0.944422711548676   0.722211305818711   0.125189984967070   1.0000000
N2   N   0.777801843824566   0.222198156175434   0.124906469875156   1.0000000
N2   N   0.111102994342444   0.888897005657549   0.624830665028615   1.0000000
N2   N   0.444460677981777   0.888897005657549   0.624830665028615   1.0000000
N2   N   0.277703814761835   0.388849771975076   0.625502187691723   1.0000000
N2   N   0.611218070237348   0.388781929762653   0.628338636900771   1.0000000
N2   N   0.777801843824566   0.888937020982458   0.625093530124843   1.0000000
N2   N   0.944450807848801   0.388855672495728   0.624956785932628   1.0000000
N2   N   0.111071531313596   0.388855672495728   0.125043214067369   1.0000000
N2   N   0.277787724941035   0.888908783215398   0.125152026754258   1.0000000
N2   N   0.611144327504270   0.888928468686405   0.125043214067369   1.0000000
N2   N   0.444230526191980   0.388781929762653   0.121661363099230   1.0000000
N2   N   0.944450807848801   0.888928468686405   0.125043214067369   1.0000000
N2   N   0.777812623879912   0.388849771975076   0.124497812308267   1.0000000
N2   N   0.277788694181289   0.555544739063307   0.624810015032931   1.0000000
N2   N   0.111071531313597   0.055549192151197   0.624956785932628   1.0000000
N2   N   0.611218070237348   0.555769473808022   0.628338636900771   1.0000000
N2   N   0.444455260936702   0.055577288451327   0.624810015032931   1.0000000
N2   N   0.944422711548676   0.555544739063307   0.624810015032931   1.0000000
N2   N   0.111102994342444   0.555539322018213   0.125169334971377   1.0000000
N2   N   0.777792999211980   0.055563166272658   0.625077489709618   1.0000000
N2   N   0.277788694181289   0.055577288451327   0.125189984967070   1.0000000
N2   N   0.444472475093890   0.555527524906112   0.124601288101984   1.0000000
N2   N   0.777721716478885   0.555527524906112   0.124601288101984   1.0000000
N2   N   0.611144327504270   0.055549192151197   0.125043214067369   1.0000000
N2   N   0.444472475093890   0.555527524906112   0.625398711898018   1.0000000
N2   N   0.944436833727342   0.055563166272658   0.124922510290380   1.0000000
N2   N   0.277787724941035   0.722212275058956   0.624847973245742   1.0000000
N2   N   0.111062979017542   0.222198156175434   0.625093530124843   1.0000000
N2   N   0.444472475093890   0.222278283521121   0.625398711898018   1.0000000
N2   N   0.611150228024922   0.722296185238163   0.625502187691723   1.0000000
N2   N   0.944422711548676   0.722211305818711   0.624810015032931   1.0000000
N2   N   0.777801843824566   0.222198156175434   0.625093530124843   1.0000000
N2   N   0.111091216784599   0.722212275058956   0.125152026754258   1.0000000
N2   N   0.444455260936702   0.722211305818711   0.125189984967070   1.0000000
N2   N   0.277703814761835   0.222187376120090   0.124497812308267   1.0000000
N2   N   0.777812623879912   0.722296185238163   0.124497812308267   1.0000000
N2   N   0.611150228024922   0.222187376120090   0.124497812308267   1.0000000
N2   N   0.944436833727342   0.222207000788021   0.124922510290380   1.0000000
N2   N   0.111071531313596   0.388855672495728   0.624956785932628   1.0000000
N2   N   0.277787724941035   0.888908783215398   0.624847973245742   1.0000000
N2   N   0.611144327504270   0.888928468686405   0.624956785932628   1.0000000
N2   N   0.444230526191976   0.388781929762653   0.628338636900771   1.0000000
N2   N   0.944450807848801   0.888928468686405   0.624956785932628   1.0000000
N2   N   0.111102994342444   0.888897005657549   0.125169334971377   1.0000000
N2   N   0.777812623879912   0.388849771975076   0.625502187691723   1.0000000
N2   N   0.444460677981779   0.888897005657549   0.125169334971377   1.0000000
N2   N   0.277703814761835   0.388849771975076   0.124497812308267   1.0000000
N2   N   0.277788694181289   0.555544739063307   0.125189984967070   1.0000000
N2   N   0.611218070237348   0.388781929762653   0.121661363099230   1.0000000
N2   N   0.777801843824566   0.888937020982458   0.124906469875156   1.0000000
N2   N   0.944450807848801   0.388855672495728   0.125043214067369   1.0000000
N2   N   0.111102994342444   0.555539322018213   0.624830665028615   1.0000000
N2   N   0.277788694181289   0.055577288451327   0.624810015032931   1.0000000
N2   N   0.777721716478885   0.555527524906112   0.625398711898018   1.0000000
N2   N   0.611144327504270   0.055549192151197   0.624956785932628   1.0000000
N2   N   0.944436833727342   0.055563166272658   0.625077489709618   1.0000000
N2   N   0.054064915447904   0.110113577426709   0.375000000000000   1.0000000
N2   N   0.555659626062901   0.623852291091220   0.375000000000000   1.0000000
N2   N   0.387056626583199   0.107446586499732   0.375000000000000   1.0000000
N2   N   0.892553413500260   0.612943373416798   0.375000000000000   1.0000000
N2   N   0.722715328645469   0.110113577426709   0.375000000000000   1.0000000
N2   N   0.055560104655045   0.777775446537421   0.875000000000000   1.0000000
N2   N   0.388882008549036   0.777775446537421   0.875000000000000   1.0000000
N2   N   0.222239913080622   0.277786623206977   0.875000000000000   1.0000000
N2   N   0.722213376793028   0.777760086919381   0.875000000000000   1.0000000
N2   N   0.555530786041407   0.277759275373963   0.875000000000000   1.0000000
N2   N   0.888894585367890   0.277784420874656   0.875000000000000   1.0000000
N2   N   0.222222222222221   0.777777777777779   0.375000000000000   1.0000000
N2   N   0.054064915447904   0.277284671354533   0.375000000000000   1.0000000
N2   N   0.376147708908784   0.265140668305016   0.375000000000000   1.0000000
N2   N   0.554943190363436   0.782856573337723   0.375000000000000   1.0000000
N2   N   0.894580049640954   0.782856573337723   0.375000000000000   1.0000000
N2   N   0.724619124701893   0.275380875298108   0.375000000000000   1.0000000
N2   N   0.055559230310421   0.944440769689585   0.875000000000000   1.0000000
N2   N   0.388882008549036   0.944439895344957   0.875000000000000   1.0000000
N2   N   0.222219656900087   0.444451866211383   0.875000000000000   1.0000000
N2   N   0.555555555555557   0.444444444444443   0.875000000000000   1.0000000
N2   N   0.722215579125343   0.944443497826580   0.875000000000000   1.0000000
N2   N   0.888898875977961   0.444451866211383   0.875000000000000   1.0000000
N2   N   0.055816642818393   0.444966618970115   0.375000000000000   1.0000000
N2   N   0.221651663710497   0.942972953622766   0.375000000000000   1.0000000
N2   N   0.555033381029884   0.944183357181601   0.375000000000000   1.0000000
N2   N   0.376147708908784   0.444340373937099   0.375000000000000   1.0000000
N2   N   0.889886422573294   0.945935084552089   0.375000000000000   1.0000000
N2   N   0.734859331694984   0.444340373937104   0.375000000000000   1.0000000
N2   N   0.222224553462582   0.611117991450964   0.875000000000000   1.0000000
N2   N   0.055556502173428   0.111105414632110   0.875000000000000   1.0000000
N2   N   0.555530786041407   0.611104844000781   0.875000000000000   1.0000000
N2   N   0.388879292770213   0.111091918873768   0.875000000000000   1.0000000
N2   N   0.888908081126231   0.611120707229789   0.875000000000000   1.0000000
N2   N   0.057027046377234   0.612012043421062   0.375000000000000   1.0000000
N2   N   0.722215579125343   0.111105414632110   0.875000000000000   1.0000000
N2   N   0.217143426662276   0.105419950359047   0.375000000000000   1.0000000
N2   N   0.387056626583199   0.612943373416798   0.375000000000000   1.0000000
N2   N   0.734859331694985   0.623852291091221   0.375000000000000   1.0000000
N2   N   0.554943190363436   0.105419950359046   0.375000000000000   1.0000000
N2   N   0.388879292770213   0.611120707229789   0.875000000000000   1.0000000
N2   N   0.888888888888886   0.111111111111114   0.375000000000000   1.0000000
N2   N   0.222222222222221   0.777777777777779   0.875000000000000   1.0000000
N2   N   0.055556502173428   0.277784420874656   0.875000000000000   1.0000000
N2   N   0.388895155999219   0.277759275373963   0.875000000000000   1.0000000
N2   N   0.555548133788612   0.777780343099903   0.875000000000000   1.0000000
N2   N   0.888898875977961   0.777780343099903   0.875000000000000   1.0000000
N2   N   0.722213376793028   0.277786623206977   0.875000000000000   1.0000000
N2   N   0.057027046377234   0.778348336289500   0.375000000000000   1.0000000
N2   N   0.387987956578931   0.778348336289500   0.375000000000000   1.0000000
N2   N   0.217428417262878   0.275380875298111   0.375000000000000   1.0000000
N2   N   0.724619124701893   0.782571582737116   0.375000000000000   1.0000000
N2   N   0.555659626062900   0.265140668305018   0.375000000000000   1.0000000
N2   N   0.889886422573294   0.277284671354533   0.375000000000000   1.0000000
N2   N   0.055559230310421   0.444451793954175   0.875000000000000   1.0000000
N2   N   0.222224553462582   0.944439895344957   0.875000000000000   1.0000000
N2   N   0.555548206045828   0.944440769689585   0.875000000000000   1.0000000
N2   N   0.388895155999219   0.444469213958593   0.875000000000000   1.0000000
N2   N   0.888894585367890   0.944443497826580   0.875000000000000   1.0000000
N2   N   0.055816642818393   0.944183357181601   0.375000000000000   1.0000000
N2   N   0.722240724626040   0.444469213958593   0.875000000000000   1.0000000
N2   N   0.387987956578925   0.942972953622766   0.375000000000000   1.0000000
N2   N   0.217143426662275   0.445056809636566   0.375000000000000   1.0000000
N2   N   0.221651663710497   0.612012043421062   0.375000000000000   1.0000000
N2   N   0.722715328645469   0.945935084552089   0.375000000000000   1.0000000
N2   N   0.894580049640954   0.445056809636566   0.375000000000000   1.0000000
N2   N   0.055560104655045   0.611117991450964   0.875000000000000   1.0000000
N2   N   0.222219656900087   0.111101124022042   0.875000000000000   1.0000000
N2   N   0.722240724626040   0.611104844000781   0.875000000000000   1.0000000
N2   N   0.555548133788613   0.111101124022042   0.875000000000000   1.0000000
N2   N   0.888888888888886   0.111111111111114   0.875000000000000   1.0000000
B2   B   0.108122438076569   0.053234648340462   0.375000000000000   1.0000000
B2   B   0.628323254661685   0.589979842656699   0.375000000000000   1.0000000
B2   B   0.443524472491035   0.052954264588928   0.375000000000000   1.0000000
B2   B   0.947045735411066   0.556475527508963   0.375000000000000   1.0000000
B2   B   0.778334788425448   0.055834060879393   0.375000000000000   1.0000000
B2   B   0.111020712937687   0.722177023135509   0.875000000000000   1.0000000
B2   B   0.444352378605090   0.722162087050407   0.875000000000000   1.0000000
B2   B   0.277876010468489   0.222334572097677   0.875000000000000   1.0000000
B2   B   0.777665427902331   0.722123989531513   0.875000000000000   1.0000000
B2   B   0.611125228295867   0.222334572097677   0.875000000000000   1.0000000
B2   B   0.944493435915619   0.222320205164587   0.875000000000000   1.0000000
B2   B   0.277440969987080   0.722559030012924   0.375000000000000   1.0000000
B2   B   0.107988735577024   0.220661034455175   0.375000000000000   1.0000000
B2   B   0.442175555475340   0.217684444284019   0.375000000000000   1.0000000
B2   B   0.612534952300179   0.731813011433568   0.375000000000000   1.0000000
B2   B   0.947045735411066   0.723903541235436   0.375000000000000   1.0000000
B2   B   0.779338965544823   0.220661034455175   0.375000000000000   1.0000000
B2   B   0.111116842992901   0.888883157007107   0.875000000000000   1.0000000
B2   B   0.444432980680871   0.888883157007107   0.875000000000000   1.0000000
B2   B   0.277876010468489   0.388874771704140   0.875000000000000   1.0000000
B2   B   0.611123366731616   0.388876633268383   0.875000000000000   1.0000000
B2   B   0.777758826653823   0.888850986640979   0.875000000000000   1.0000000
B2   B   0.944484950064512   0.388868484376039   0.875000000000000   1.0000000
B2   B   0.108122438076569   0.388221123069435   0.375000000000000   1.0000000
B2   B   0.277440969987080   0.888215273307489   0.375000000000000   1.0000000
B2   B   0.611778876930560   0.891877561923429   0.375000000000000   1.0000000
B2   B   0.410020157343304   0.371676745338314   0.375000000000000   1.0000000
B2   B   0.946765351659538   0.891877561923429   0.375000000000000   1.0000000
B2   B   0.785944725800046   0.387465047699817   0.375000000000000   1.0000000
B2   B   0.277837912949587   0.555647621394907   0.875000000000000   1.0000000
B2   B   0.111050200978209   0.055515049935495   0.875000000000000   1.0000000
B2   B   0.611123366731616   0.555580066796563   0.875000000000000   1.0000000
B2   B   0.444352378605090   0.055523624888012   0.875000000000000   1.0000000
B2   B   0.944476375111982   0.555647621394907   0.875000000000000   1.0000000
B2   B   0.111332395357639   0.555998124048599   0.375000000000000   1.0000000
B2   B   0.777679794835413   0.055506564084375   0.875000000000000   1.0000000
B2   B   0.276096458764561   0.052954264588928   0.375000000000000   1.0000000
B2   B   0.442175555475341   0.557824444524658   0.375000000000000   1.0000000
B2   B   0.782315555715982   0.557824444524658   0.375000000000000   1.0000000
B2   B   0.611778876930560   0.053234648340462   0.375000000000000   1.0000000
B2   B   0.444456184388524   0.555543815611477   0.875000000000000   1.0000000
B2   B   0.944165939120611   0.055834060879393   0.375000000000000   1.0000000
B2   B   0.277822976864493   0.722177023135509   0.875000000000000   1.0000000
B2   B   0.111149013359016   0.222241173346172   0.875000000000000   1.0000000
B2   B   0.444456184388524   0.222245702110392   0.875000000000000   1.0000000
B2   B   0.611125228295867   0.722123989531513   0.875000000000000   1.0000000
B2   B   0.944476375111982   0.722162087050407   0.875000000000000   1.0000000
B2   B   0.777758826653823   0.222241173346172   0.875000000000000   1.0000000
B2   B   0.111784726692514   0.722559030012924   0.375000000000000   1.0000000
B2   B   0.443524472491030   0.723903541235436   0.375000000000000   1.0000000
B2   B   0.268186988566440   0.214055274199949   0.375000000000000   1.0000000
B2   B   0.785944725800046   0.731813011433568   0.375000000000000   1.0000000
B2   B   0.612534952300179   0.214055274199949   0.375000000000000   1.0000000
B2   B   0.944165939120611   0.221665211574548   0.375000000000000   1.0000000
B2   B   0.111050200978209   0.388868484376039   0.875000000000000   1.0000000
B2   B   0.277822976864493   0.888979287062315   0.875000000000000   1.0000000
B2   B   0.611131515623956   0.888949799021791   0.875000000000000   1.0000000
B2   B   0.444419933203441   0.388876633268383   0.875000000000000   1.0000000
B2   B   0.944484950064512   0.888949799021791   0.875000000000000   1.0000000
B2   B   0.111332395357639   0.888667604642360   0.375000000000000   1.0000000
B2   B   0.777665427902331   0.388874771704140   0.875000000000000   1.0000000
B2   B   0.444001875951394   0.888667604642360   0.375000000000000   1.0000000
B2   B   0.268186988566440   0.387465047699817   0.375000000000000   1.0000000
B2   B   0.276096458764561   0.556475527508963   0.375000000000000   1.0000000
B2   B   0.628323254661685   0.371676745338315   0.375000000000000   1.0000000
B2   B   0.779338965544823   0.892011264422974   0.375000000000000   1.0000000
B2   B   0.946765351659536   0.388221123069432   0.375000000000000   1.0000000
B2   B   0.111116842992901   0.555567019319129   0.875000000000000   1.0000000
B2   B   0.277837912949587   0.055523624888012   0.875000000000000   1.0000000
B2   B   0.777754297889616   0.555543815611477   0.875000000000000   1.0000000
B2   B   0.611131515623956   0.055515049935495   0.875000000000000   1.0000000
B2   B   0.944493435915619   0.055506564084375   0.875000000000000   1.0000000
B2   B   0.055503450470193   0.111021465421301   0.125022227867602   1.0000000
B2   B   0.555776540263748   0.611103491633579   0.123689339006363   1.0000000
B2   B   0.388915262042915   0.111163857419174   0.125221527176048   1.0000000
B2   B   0.888836142580828   0.611084737957082   0.125221527176048   1.0000000
B2   B   0.722184681617774   0.111021465421301   0.125022227867602   1.0000000
B2   B   0.055443990022872   0.777651061245899   0.624740567739584   1.0000000
B2   B   0.388873737889695   0.777651061245899   0.624740567739584   1.0000000
B2   B   0.222340137904555   0.277836735618946   0.625296003467037   1.0000000
B2   B   0.722163264381057   0.777659862095445   0.625296003467038   1.0000000
B2   B   0.555776540263748   0.278006381963497   0.626310660993634   1.0000000
B2   B   0.888978534578694   0.277815318382227   0.624977772132398   1.0000000
B2   B   0.222222222222221   0.777777777777779   0.125189166381336   1.0000000
B2   B   0.055503450470193   0.277815318382227   0.125022227867602   1.0000000
B2   B   0.388896508366421   0.278006381963497   0.123689339006364   1.0000000
B2   B   0.555600634358561   0.777750687514352   0.125040302647535   1.0000000
B2   B   0.888816719822448   0.777750687514352   0.125040302647535   1.0000000
B2   B   0.722163264381057   0.277836735618946   0.124703996532961   1.0000000
B2   B   0.055483270316942   0.944516729683065   0.624835175339973   1.0000000
B2   B   0.388873737889695   0.944556009977130   0.624740567739584   1.0000000
B2   B   0.222249312485656   0.444399365641437   0.624959697352464   1.0000000
B2   B   0.555555555555557   0.444444444444443   0.625831576066452   1.0000000
B2   B   0.722184681617774   0.944496549529810   0.624977772132398   1.0000000
B2   B   0.888816719822448   0.444399365641437   0.624959697352464   1.0000000
B2   B   0.055483270316942   0.444299873967211   0.125164824660030   1.0000000
B2   B   0.222348938754096   0.944556009977130   0.125259432260417   1.0000000
B2   B   0.555700126032784   0.944516729683065   0.125164824660030   1.0000000
B2   B   0.388896508366421   0.444223459736253   0.123689339006365   1.0000000
B2   B   0.888978534578694   0.944496549529810   0.125022227867602   1.0000000
B2   B   0.721993618036501   0.444223459736253   0.123689339006364   1.0000000
B2   B   0.222348938754095   0.611126262110305   0.624740567739584   1.0000000
B2   B   0.055503450470193   0.111021465421301   0.624977772132398   1.0000000
B2   B   0.555776540263748   0.611103491633579   0.626310660993634   1.0000000
B2   B   0.388915262042915   0.111163857419174   0.624778472823950   1.0000000
B2   B   0.888836142580828   0.611084737957082   0.624778472823950   1.0000000
B2   B   0.055443990022872   0.611126262110305   0.125259432260417   1.0000000
B2   B   0.722184681617774   0.111021465421301   0.624977772132398   1.0000000
B2   B   0.222249312485656   0.111183280177553   0.125040302647535   1.0000000
B2   B   0.388915262042915   0.611084737957082   0.125221527176048   1.0000000
B2   B   0.721993618036501   0.611103491633579   0.123689339006363   1.0000000
B2   B   0.555600634358561   0.111183280177553   0.125040302647535   1.0000000
B2   B   0.388915262042915   0.611084737957082   0.624778472823950   1.0000000
B2   B   0.888888888888886   0.111111111111114   0.124993412100346   1.0000000
B2   B   0.222222222222221   0.777777777777779   0.624810833618666   1.0000000
B2   B   0.055503450470193   0.277815318382227   0.624977772132398   1.0000000
B2   B   0.388896508366421   0.278006381963497   0.626310660993634   1.0000000
B2   B   0.555600634358561   0.777750687514352   0.624959697352464   1.0000000
B2   B   0.888816719822448   0.777750687514352   0.624959697352464   1.0000000
B2   B   0.722163264381057   0.277836735618946   0.625296003467037   1.0000000
B2   B   0.055443990022872   0.777651061245899   0.125259432260417   1.0000000
B2   B   0.388873737889695   0.777651061245899   0.125259432260417   1.0000000
B2   B   0.222340137904556   0.277836735618946   0.124703996532961   1.0000000
B2   B   0.722163264381057   0.777659862095445   0.124703996532961   1.0000000
B2   B   0.555776540263748   0.278006381963497   0.123689339006363   1.0000000
B2   B   0.888978534578694   0.277815318382227   0.125022227867602   1.0000000
B2   B   0.055483270316942   0.444299873967211   0.624835175339973   1.0000000
B2   B   0.222348938754095   0.944556009977130   0.624740567739584   1.0000000
B2   B   0.555700126032784   0.944516729683065   0.624835175339973   1.0000000
B2   B   0.388896508366421   0.444223459736253   0.626310660993634   1.0000000
B2   B   0.888978534578694   0.944496549529810   0.624977772132398   1.0000000
B2   B   0.055483270316942   0.944516729683065   0.125164824660030   1.0000000
B2   B   0.721993618036501   0.444223459736253   0.626310660993634   1.0000000
B2   B   0.388873737889695   0.944556009977130   0.125259432260417   1.0000000
B2   B   0.222249312485656   0.444399365641437   0.125040302647535   1.0000000
B2   B   0.222348938754095   0.611126262110305   0.125259432260417   1.0000000
B2   B   0.555555555555557   0.444444444444443   0.124168423933547   1.0000000
B2   B   0.722184681617774   0.944496549529810   0.125022227867602   1.0000000
B2   B   0.888816719822448   0.444399365641437   0.125040302647535   1.0000000
B2   B   0.055443990022872   0.611126262110305   0.624740567739584   1.0000000
B2   B   0.222249312485656   0.111183280177553   0.624959697352464   1.0000000
B2   B   0.721993618036501   0.611103491633579   0.626310660993634   1.0000000
B2   B   0.555600634358561   0.111183280177553   0.624959697352464   1.0000000
B2   B   0.888888888888886   0.111111111111114   0.625006587899653   1.0000000


