data_1
_audit_creation_method   'vasp2cif'
_cell_length_a    14.93631414619966
_cell_length_b    14.936314146199727
_cell_length_c    13.341276283792837
_cell_angle_alpha    90.0
_cell_angle_beta    90.0
_cell_angle_gamma    119.99999999999984

_symmetry_space_group_name_H-M    'P 1'
loop_
_atom_site_label
_atom_site_type_symbol
_atom_site_fract_x
_atom_site_fract_y
_atom_site_fract_z
_atom_site_occupancy
Sb2   Sb   0.495874664964162   0.414603999148737   0.375000000000000   1.0000000
N2   N   0.111013175746445   0.055497150563755   0.125141047684223   1.0000000
N2   N   0.611069314496680   0.555598208316052   0.120657230717410   1.0000000
N2   N   0.444372487322388   0.055513942240791   0.125024736805415   1.0000000
N2   N   0.944331066399121   0.555498464613703   0.125121293231411   1.0000000
N2   N   0.777715079151432   0.055524206242391   0.125019241425367   1.0000000
N2   N   0.111006940709348   0.722170137021330   0.624961757997001   1.0000000
N2   N   0.444372487322388   0.722191878414937   0.624975263194579   1.0000000
N2   N   0.277638232990116   0.222142490228933   0.626726655884908   1.0000000
N2   N   0.777675240307186   0.722181228100175   0.625504654222589   1.0000000
N2   N   0.611035920121852   0.222165425805410   0.625724090545637   1.0000000
N2   N   0.944365380438523   0.222183173395574   0.624876588581480   1.0000000
N2   N   0.277691516239913   0.722180859610421   0.125100827120932   1.0000000
N2   N   0.111005965868412   0.222169649600863   0.124870760781375   1.0000000
N2   N   0.444373675480706   0.222184426323015   0.122821407168000   1.0000000
N2   N   0.611035920121852   0.722203827649775   0.124275909454363   1.0000000
N2   N   0.944331066399121   0.722165935118748   0.125121293231411   1.0000000
N2   N   0.777705505497550   0.222171638690427   0.125055734068440   1.0000000
N2   N   0.111014208982085   0.888836980497250   0.624845589065258   1.0000000
N2   N   0.444370188289596   0.888851760811461   0.624841501322888   1.0000000
N2   N   0.277638232990116   0.388829076094495   0.626726655884908   1.0000000
N2   N   0.611069314496680   0.388804439513966   0.629342769282587   1.0000000
N2   N   0.777705505497550   0.888867200140421   0.624944265931552   1.0000000
N2   N   0.944348705837736   0.388842397407856   0.624765117204889   1.0000000
N2   N   0.111013175746445   0.388849358516016   0.125141047684223   1.0000000
N2   N   0.277691516239913   0.888843989962764   0.125100827120932   1.0000000
N2   N   0.611043670616518   0.888865055189300   0.125141939993981   1.0000000
N2   N   0.444130946466088   0.388732139899710   0.118666903562267   1.0000000
N2   N   0.944348705837736   0.888839641763218   0.125234882795129   1.0000000
N2   N   0.777675240307186   0.388827345540339   0.124495345777450   1.0000000
N2   N   0.277700617890369   0.555519920599790   0.625149054445924   1.0000000
N2   N   0.111013175746445   0.055497150563755   0.624858952315777   1.0000000
N2   N   0.611069314496680   0.555598208316052   0.629342769282587   1.0000000
N2   N   0.444372487322388   0.055513942240791   0.624975263194579   1.0000000
N2   N   0.944331066399121   0.555498464613703   0.624878706768575   1.0000000
N2   N   0.111014208982085   0.555510561818164   0.125154410934738   1.0000000
N2   N   0.777715079151432   0.055524206242391   0.624980758574653   1.0000000
N2   N   0.277700617890369   0.055514030623941   0.124850945554076   1.0000000
N2   N   0.444373675480706   0.555522582491015   0.122821407168000   1.0000000
N2   N   0.777664115133540   0.555498724233424   0.123817543320160   1.0000000
N2   N   0.611043670616519   0.055511948760567   0.125141939993981   1.0000000
N2   N   0.444373675480706   0.555522582491015   0.627178592832015   1.0000000
N2   N   0.944365380438523   0.055515540376288   0.125123411418486   1.0000000
N2   N   0.277691516239913   0.722180859610421   0.624899172879047   1.0000000
N2   N   0.111005965868412   0.222169649600863   0.625129239218647   1.0000000
N2   N   0.444373675480706   0.222184426323015   0.627178592832015   1.0000000
N2   N   0.611035920121852   0.722203827649775   0.625724090545637   1.0000000
N2   N   0.944331066399121   0.722165935118748   0.624878706768575   1.0000000
N2   N   0.777705505497550   0.222171638690427   0.624944265931552   1.0000000
N2   N   0.111006940709348   0.722170137021330   0.125038242002988   1.0000000
N2   N   0.444372487322388   0.722191878414937   0.125024736805415   1.0000000
N2   N   0.277638232990116   0.222142490228933   0.123273344115091   1.0000000
N2   N   0.777675240307186   0.722181228100175   0.124495345777450   1.0000000
N2   N   0.611035920121852   0.222165425805410   0.124275909454363   1.0000000
N2   N   0.944365380438523   0.222183173395574   0.125123411418486   1.0000000
N2   N   0.111013175746445   0.388849358516016   0.624858952315777   1.0000000
N2   N   0.277691516239913   0.888843989962764   0.624899172879047   1.0000000
N2   N   0.611043670616519   0.888865055189300   0.624858060006056   1.0000000
N2   N   0.444130946466088   0.388732139899710   0.631333096437732   1.0000000
N2   N   0.944348705837736   0.888839641763218   0.624765117204889   1.0000000
N2   N   0.111014208982085   0.888836980497250   0.125154410934738   1.0000000
N2   N   0.777675240307186   0.388827345540339   0.625504654222589   1.0000000
N2   N   0.444370188289596   0.888851760811461   0.125158498677112   1.0000000
N2   N   0.277638232990116   0.388829076094495   0.123273344115091   1.0000000
N2   N   0.277700617890369   0.555519920599790   0.124850945554076   1.0000000
N2   N   0.611069314496680   0.388804439513966   0.120657230717410   1.0000000
N2   N   0.777705505497550   0.888867200140421   0.125055734068440   1.0000000
N2   N   0.944348705837736   0.388842397407856   0.125234882795129   1.0000000
N2   N   0.111014208982085   0.555510561818164   0.624845589065258   1.0000000
N2   N   0.277700617890369   0.055514030623941   0.625149054445924   1.0000000
N2   N   0.777664115133540   0.555498724233424   0.626182456679823   1.0000000
N2   N   0.611043670616519   0.055511948760567   0.624858060006056   1.0000000
N2   N   0.944365380438523   0.055515540376288   0.624876588581480   1.0000000
N2   N   0.057341950606614   0.112200953012626   0.375000000000000   1.0000000
N2   N   0.554088229432361   0.620222972217474   0.375000000000000   1.0000000
N2   N   0.386290898047291   0.103201598444659   0.375000000000000   1.0000000
N2   N   0.885549067778444   0.609441200555876   0.375000000000000   1.0000000
N2   N   0.723119256984651   0.110617936283966   0.375000000000000   1.0000000
N2   N   0.055554754333449   0.777777464848492   0.875000000000000   1.0000000
N2   N   0.388881030954418   0.777778735126079   0.875000000000000   1.0000000
N2   N   0.222211100607163   0.277772216970254   0.875000000000000   1.0000000
N2   N   0.722219223257419   0.777776311490293   0.875000000000000   1.0000000
N2   N   0.555546530771686   0.277763096925166   0.875000000000000   1.0000000
N2   N   0.888885008640713   0.277778164000898   0.875000000000000   1.0000000
N2   N   0.219270199585042   0.776301766459220   0.375000000000000   1.0000000
N2   N   0.057341950606614   0.278474330927324   0.375000000000000   1.0000000
N2   N   0.388423598351482   0.266474874913090   0.375000000000000   1.0000000
N2   N   0.554871060248962   0.781768445137239   0.375000000000000   1.0000000
N2   N   0.887949948262926   0.777983102092881   0.375000000000000   1.0000000
N2   N   0.722721300875866   0.275618636860974   0.375000000000000   1.0000000
N2   N   0.055548086163764   0.944438502062501   0.875000000000000   1.0000000
N2   N   0.388881030954418   0.944435629161690   0.875000000000000   1.0000000
N2   N   0.222207829862837   0.444446335225531   0.875000000000000   1.0000000
N2   N   0.555559743891089   0.444446538612209   0.875000000000000   1.0000000
N2   N   0.722213019739945   0.944439510160424   0.875000000000000   1.0000000
N2   N   0.888893421609310   0.444447505257748   0.875000000000000   1.0000000
N2   N   0.054854394530841   0.444286276707868   0.375000000000000   1.0000000
N2   N   0.219508731016413   0.941465866497306   0.375000000000000   1.0000000
N2   N   0.555014037272711   0.944173685303060   0.375000000000000   1.0000000
N2   N   0.388423598351482   0.455282056771729   0.375000000000000   1.0000000
N2   N   0.889927829637621   0.945767502775650   0.375000000000000   1.0000000
N2   N   0.720969672294574   0.442068972933682   0.375000000000000   1.0000000
N2   N   0.222211091800792   0.611110953380613   0.875000000000000   1.0000000
N2   N   0.055547280560705   0.111104527479537   0.875000000000000   1.0000000
N2   N   0.555546530771686   0.611116767179841   0.875000000000000   1.0000000
N2   N   0.388875128083228   0.111089426419506   0.875000000000000   1.0000000
N2   N   0.888902659829971   0.611117996581675   0.875000000000000   1.0000000
N2   N   0.052692652890848   0.609987974686005   0.375000000000000   1.0000000
N2   N   0.722213019739945   0.111106842912870   0.875000000000000   1.0000000
N2   N   0.221912890904709   0.109314206771864   0.375000000000000   1.0000000
N2   N   0.386290898047291   0.616422632935982   0.375000000000000   1.0000000
N2   N   0.720969672294574   0.612234032694217   0.375000000000000   1.0000000
N2   N   0.554871060248962   0.106435948445059   0.375000000000000   1.0000000
N2   N   0.388875128083228   0.611119034997048   0.875000000000000   1.0000000
N2   N   0.890478845965803   0.111906089649586   0.375000000000000   1.0000000
N2   N   0.222216249702528   0.777774791517929   0.875000000000000   1.0000000
N2   N   0.055547280560705   0.277776086414509   0.875000000000000   1.0000000
N2   N   0.388874218514605   0.277752141577880   0.875000000000000   1.0000000
N2   N   0.555545264725182   0.777777522126165   0.875000000000000   1.0000000
N2   N   0.888893421609310   0.777779249684930   0.875000000000000   1.0000000
N2   N   0.722219223257419   0.277776245100484   0.875000000000000   1.0000000
N2   N   0.052692652890848   0.776038011538184   0.375000000000000   1.0000000
N2   N   0.386696724070759   0.778719335811271   0.375000000000000   1.0000000
N2   N   0.225692246685609   0.279512790009469   0.375000000000000   1.0000000
N2   N   0.722721300875866   0.780435997348225   0.375000000000000   1.0000000
N2   N   0.554088229432361   0.267198590548199   0.375000000000000   1.0000000
N2   N   0.889927829637621   0.277493660195336   0.375000000000000   1.0000000
N2   N   0.055548086163764   0.444442917434573   0.875000000000000   1.0000000
N2   N   0.222211091800792   0.944433471753501   0.875000000000000   1.0000000
N2   N   0.555545358030544   0.944439345681937   0.875000000000000   1.0000000
N2   N   0.388874218514605   0.444455410270070   0.875000000000000   1.0000000
N2   N   0.888885008640713   0.944440177973147   0.875000000000000   1.0000000
N2   N   0.054854394530841   0.943901451156283   0.375000000000000   1.0000000
N2   N   0.722236957706989   0.444452253180492   0.875000000000000   1.0000000
N2   N   0.386696724070759   0.941310721592829   0.375000000000000   1.0000000
N2   N   0.221912890904709   0.445932017466171   0.375000000000000   1.0000000
N2   N   0.219508731016413   0.611376197852391   0.375000000000000   1.0000000
N2   N   0.723119256984651   0.945834654034000   0.375000000000000   1.0000000
N2   N   0.887949948262926   0.443300179503360   0.375000000000000   1.0000000
N2   N   0.055554754333449   0.611110622818308   0.875000000000000   1.0000000
N2   N   0.222207829862837   0.111094827970644   0.875000000000000   1.0000000
N2   N   0.722236957706989   0.611118037859833   0.875000000000000   1.0000000
N2   N   0.555545264725182   0.111101075932390   0.875000000000000   1.0000000
N2   N   0.888882457626989   0.111107895480155   0.875000000000000   1.0000000
B2   B   0.111290549943331   0.055110625061284   0.375000000000000   1.0000000
B2   B   0.612882195697811   0.570544125530712   0.375000000000000   1.0000000
B2   B   0.443408267927220   0.050767545112507   0.375000000000000   1.0000000
B2   B   0.941885133309785   0.554354053906091   0.375000000000000   1.0000000
B2   B   0.779448325669309   0.056390829501315   0.375000000000000   1.0000000
B2   B   0.111108549082779   0.722220941208045   0.875000000000000   1.0000000
B2   B   0.444429896180287   0.722207958776129   0.875000000000000   1.0000000
B2   B   0.277790830082630   0.222228842271017   0.875000000000000   1.0000000
B2   B   0.777766289066481   0.722202647767285   0.875000000000000   1.0000000
B2   B   0.611091216708880   0.222228866740074   0.875000000000000   1.0000000
B2   B   0.944447568083864   0.222224561451398   0.875000000000000   1.0000000
B2   B   0.275480105409014   0.722063852258413   0.375000000000000   1.0000000
B2   B   0.114097640403222   0.223715486868276   0.375000000000000   1.0000000
B2   B   0.442194717730695   0.211832983478928   0.375000000000000   1.0000000
B2   B   0.611839843244982   0.729348790624173   0.375000000000000   1.0000000
B2   B   0.941885133309785   0.720864412736999   0.375000000000000   1.0000000
B2   B   0.779108098658008   0.221313639787862   0.375000000000000   1.0000000
B2   B   0.111108719990848   0.888890101019382   0.875000000000000   1.0000000
B2   B   0.444432712961332   0.888883023147326   0.875000000000000   1.0000000
B2   B   0.277790830082630   0.388895321144940   0.875000000000000   1.0000000
B2   B   0.611086490175633   0.388901388346270   0.875000000000000   1.0000000
B2   B   0.777768581970427   0.888876399972744   0.875000000000000   1.0000000
B2   B   0.944442867053156   0.388890477479818   0.875000000000000   1.0000000
B2   B   0.111290549943331   0.389513258215375   0.375000000000000   1.0000000
B2   B   0.275480105409014   0.886749586483943   0.375000000000000   1.0000000
B2   B   0.611884848217761   0.891339894995957   0.375000000000000   1.0000000
B2   B   0.944240228885146   0.889248492267741   0.375000000000000   1.0000000
B2   B   0.777636443324041   0.386793688210286   0.375000000000000   1.0000000
B2   B   0.277773684855650   0.555550260304238   0.875000000000000   1.0000000
B2   B   0.111115341278730   0.055559060362783   0.875000000000000   1.0000000
B2   B   0.611086490175633   0.555518435162771   0.875000000000000   1.0000000
B2   B   0.444429896180287   0.055555270737493   0.875000000000000   1.0000000
B2   B   0.944443263961445   0.555557311864081   0.875000000000000   1.0000000
B2   B   0.108840421474854   0.555170698215136   0.375000000000000   1.0000000
B2   B   0.777771649353339   0.055552491343344   0.875000000000000   1.0000000
B2   B   0.275647432483515   0.051887827058597   0.375000000000000   1.0000000
B2   B   0.442194717730695   0.563695067585095   0.375000000000000   1.0000000
B2   B   0.774470411836804   0.553901872585059   0.375000000000000   1.0000000
B2   B   0.611884848217761   0.053878286555116   0.375000000000000   1.0000000
B2   B   0.444434657048655   0.555541097872614   0.875000000000000   1.0000000
B2   B   0.946308004694591   0.056874940667587   0.375000000000000   1.0000000
B2   B   0.277770555179597   0.722216126000639   0.875000000000000   1.0000000
B2   B   0.111123771860576   0.222228552596954   0.875000000000000   1.0000000
B2   B   0.444434657048655   0.222226892509389   0.875000000000000   1.0000000
B2   B   0.611091216708880   0.722195683302131   0.875000000000000   1.0000000
B2   B   0.944443263961445   0.722219285430731   0.875000000000000   1.0000000
B2   B   0.777768581970427   0.222225515331001   0.875000000000000   1.0000000
B2   B   0.108332918166620   0.720833125749971   0.375000000000000   1.0000000
B2   B   0.443408267927220   0.725974056148027   0.375000000000000   1.0000000
B2   B   0.279273323847024   0.220946635123689   0.375000000000000   1.0000000
B2   B   0.777636443324041   0.724176088447085   0.375000000000000   1.0000000
B2   B   0.611839843244982   0.215824385954157   0.375000000000000   1.0000000
B2   B   0.946308004694591   0.222766397360350   0.375000000000000   1.0000000
B2   B   0.111115341278730   0.388889614249280   0.875000000000000   1.0000000
B2   B   0.277770555179597   0.888887762512273   0.875000000000000   1.0000000
B2   B   0.611097638840350   0.888877405558172   0.875000000000000   1.0000000
B2   B   0.444457831728513   0.388895582530924   0.875000000000000   1.0000000
B2   B   0.944442867053156   0.888885722906679   0.875000000000000   1.0000000
B2   B   0.108840421474854   0.887003056593065   0.375000000000000   1.0000000
B2   B   0.777766289066481   0.388896974632536   0.875000000000000   1.0000000
B2   B   0.443554219091439   0.888443776212387   0.375000000000000   1.0000000
B2   B   0.279273323847024   0.391660022056658   0.375000000000000   1.0000000
B2   B   0.275647432483515   0.557092938758258   0.375000000000000   1.0000000
B2   B   0.612882195697811   0.375671403500422   0.375000000000000   1.0000000
B2   B   0.779108098658008   0.891127792203472   0.375000000000000   1.0000000
B2   B   0.944240228885146   0.388325069950741   0.375000000000000   1.0000000
B2   B   0.111108719990848   0.555551952304792   0.875000000000000   1.0000000
B2   B   0.277773684855650   0.055556757884769   0.875000000000000   1.0000000
B2   B   0.777767029077522   0.555550181205447   0.875000000000000   1.0000000
B2   B   0.611097638840350   0.055553566615490   0.875000000000000   1.0000000
B2   B   0.944447568083864   0.055556339965790   0.875000000000000   1.0000000
B2   B   0.055492786395273   0.111087256594569   0.125059609081755   1.0000000
B2   B   0.555483657800058   0.611014413969553   0.122418525670781   1.0000000
B2   B   0.388828999865020   0.111125303434019   0.124364828779006   1.0000000
B2   B   0.888727548735689   0.611030441034481   0.124733070911588   1.0000000
B2   B   0.722151887870730   0.111064971167195   0.125026405318074   1.0000000
B2   B   0.055453403287778   0.777733603902717   0.624925535952921   1.0000000
B2   B   0.388809555293338   0.777728857539886   0.624900572317660   1.0000000
B2   B   0.222146056203057   0.277739694768200   0.626199120213488   1.0000000
B2   B   0.722125860465532   0.777745609754109   0.625474801687903   1.0000000
B2   B   0.555483657800058   0.277802577163834   0.627581474329217   1.0000000
B2   B   0.888815745624721   0.277726161823861   0.624898910674070   1.0000000
B2   B   0.222136064439534   0.777734698886410   0.125032875754666   1.0000000
B2   B   0.055492786395273   0.277738863134045   0.125059609081755   1.0000000
B2   B   0.388757705677092   0.277750292822588   0.121435898766792   1.0000000
B2   B   0.555473669291727   0.777735085128843   0.124836346472675   1.0000000
B2   B   0.888774695944532   0.777730445337741   0.124953542632157   1.0000000
B2   B   0.722125860465532   0.277713584044772   0.124525198312084   1.0000000
B2   B   0.055475468352296   0.944417389228157   0.624802113787319   1.0000000
B2   B   0.388809555293338   0.944414031086770   0.624900572317660   1.0000000
B2   B   0.222149819484253   0.444386118176572   0.625448430629716   1.0000000
B2   B   0.555383300262873   0.444358316798101   0.628973172531285   1.0000000
B2   B   0.722151887870730   0.944420250036842   0.624973594681936   1.0000000
B2   B   0.888774695944532   0.444377583940086   0.625046457367828   1.0000000
B2   B   0.055475468352296   0.444391412457457   0.125197886212717   1.0000000
B2   B   0.222148339045008   0.944429612342967   0.125065792869188   1.0000000
B2   B   0.555478094616315   0.944405713974830   0.125125613358100   1.0000000
B2   B   0.388757705677092   0.444340746187822   0.121435898766792   1.0000000
B2   B   0.888815745624721   0.944422917134164   0.125101089325926   1.0000000
B2   B   0.722006522472344   0.444337871109884   0.122852459894558   1.0000000
B2   B   0.222148339045008   0.611052060035343   0.624934207130816   1.0000000
B2   B   0.055492786395273   0.111087256594566   0.624940390918227   1.0000000
B2   B   0.555483657800058   0.611014413969553   0.627581474329217   1.0000000
B2   B   0.388828999865020   0.111125303434019   0.625635171220973   1.0000000
B2   B   0.888727548735689   0.611030441034481   0.625266929088410   1.0000000
B2   B   0.055453403287778   0.611053132718427   0.125074464047080   1.0000000
B2   B   0.722151887870730   0.111064971167195   0.624973594681936   1.0000000
B2   B   0.222149819484253   0.111097034641025   0.124551569370282   1.0000000
B2   B   0.388828999865020   0.611037029764354   0.124364828779006   1.0000000
B2   B   0.722006522472344   0.611001984695819   0.122852459894558   1.0000000
B2   B   0.555473669291727   0.111071917496201   0.124836346472675   1.0000000
B2   B   0.388828999865020   0.611037029764354   0.625635171220973   1.0000000
B2   B   0.888828206081367   0.111080769707365   0.125036890146460   1.0000000
B2   B   0.222136064439534   0.777734698886410   0.624967124245336   1.0000000
B2   B   0.055492786395273   0.277738863134045   0.624940390918227   1.0000000
B2   B   0.388757705677093   0.277750292822588   0.628564101233199   1.0000000
B2   B   0.555473669291727   0.777735085128843   0.625163653527322   1.0000000
B2   B   0.888774695944532   0.777730445337741   0.625046457367828   1.0000000
B2   B   0.722125860465532   0.277713584044772   0.625474801687903   1.0000000
B2   B   0.055453403287778   0.777733603902717   0.125074464047080   1.0000000
B2   B   0.388809555293338   0.777728857539886   0.125099427682325   1.0000000
B2   B   0.222146056203057   0.277739694768200   0.123800879786521   1.0000000
B2   B   0.722125860465532   0.777745609754109   0.124525198312084   1.0000000
B2   B   0.555483657800058   0.277802577163834   0.122418525670781   1.0000000
B2   B   0.888815745624721   0.277726161823861   0.125101089325926   1.0000000
B2   B   0.055475468352296   0.444391412457457   0.624802113787319   1.0000000
B2   B   0.222148339045008   0.944429612342967   0.624934207130816   1.0000000
B2   B   0.555478094616315   0.944405713974830   0.624874386641915   1.0000000
B2   B   0.388757705677093   0.444340746187822   0.628564101233199   1.0000000
B2   B   0.888815745624721   0.944422917134164   0.624898910674070   1.0000000
B2   B   0.055475468352296   0.944417389228157   0.125197886212717   1.0000000
B2   B   0.722006522472344   0.444337871109884   0.627147540105448   1.0000000
B2   B   0.388809555293338   0.944414031086770   0.125099427682325   1.0000000
B2   B   0.222149819484253   0.444386118176572   0.124551569370282   1.0000000
B2   B   0.222148339045008   0.611052060035343   0.125065792869188   1.0000000
B2   B   0.555383300262873   0.444358316798101   0.121026827468708   1.0000000
B2   B   0.722151887870730   0.944420250036842   0.125026405318074   1.0000000
B2   B   0.888774695944532   0.444377583940086   0.124953542632157   1.0000000
B2   B   0.055453403287778   0.611053132718427   0.624925535952921   1.0000000
B2   B   0.222149819484253   0.111097034641025   0.625448430629716   1.0000000
B2   B   0.722006522472344   0.611001984695819   0.627147540105448   1.0000000
B2   B   0.555473669291727   0.111071917496201   0.625163653527322   1.0000000
B2   B   0.888828206081367   0.111080769707365   0.624963109853530   1.0000000


