data_1
_audit_creation_method   'vasp2cif'
_cell_length_a    17.52789999999977
_cell_length_b    17.52789999999977
_cell_length_c    15.0
_cell_angle_alpha    90.0
_cell_angle_beta    90.0
_cell_angle_gamma    119.99999999999916

_symmetry_space_group_name_H-M    'P 1'
loop_
_atom_site_label
_atom_site_type_symbol
_atom_site_fract_x
_atom_site_fract_y
_atom_site_fract_z
_atom_site_occupancy
B2   B   0.904916360958437   0.952535300476863   0.110919557983224   1.0000000
B2   B   0.904713907669927   0.095241373677132   0.110984113743003   1.0000000
B2   B   0.904663562231332   0.237977735249503   0.111007078340932   1.0000000
B2   B   0.904663695373236   0.380774294004037   0.110939550325312   1.0000000
B2   B   0.905307540577676   0.523720369436256   0.110941136662533   1.0000000
B2   B   0.906582793954114   0.667083856327974   0.111006915613024   1.0000000
B2   B   0.906609592722713   0.811013364378036   0.110962510776635   1.0000000
B2   B   0.048537413780147   0.953290500647185   0.110910131802008   1.0000000
B2   B   0.047894621382295   0.095693690879355   0.110914883882502   1.0000000
B2   B   0.047595853203967   0.238039560666975   0.110921148863578   1.0000000
B2   B   0.047707055497633   0.380642906703094   0.110962887192118   1.0000000
B2   B   0.047928942284454   0.523606584216469   0.110973768387553   1.0000000
B2   B   0.048350544698098   0.666744662676289   0.110993019879874   1.0000000
B2   B   0.048425404669862   0.809980609967919   0.110952586946217   1.0000000
B2   B   0.190711223923012   0.952531368564702   0.110929112539085   1.0000000
B2   B   0.190974838222319   0.095849808758527   0.110955631954888   1.0000000
B2   B   0.190894518452013   0.239006334334559   0.110980732351246   1.0000000
B2   B   0.190696510737756   0.380243457664844   0.110972256271101   1.0000000
B2   B   0.190637811990001   0.523531874026483   0.111041827376473   1.0000000
B2   B   0.190454241381265   0.666646664095373   0.111065638054315   1.0000000
B2   B   0.190739969072486   0.809668208664977   0.110956765891439   1.0000000
B2   B   0.333388238143676   0.952370861509906   0.110954001279561   1.0000000
B2   B   0.333064679710738   0.094629244490491   0.111027298484073   1.0000000
B2   B   0.333433977084516   0.237137550355035   0.111107113044893   1.0000000
B2   B   0.334811391522410   0.381703486022252   0.111081773381240   1.0000000
B2   B   0.333227122628717   0.524578734585111   0.111115538855523   1.0000000
B2   B   0.332540529387465   0.666920393783502   0.111120177664092   1.0000000
B2   B   0.333259892239536   0.809707299725056   0.111050354977865   1.0000000
B2   B   0.476125539537065   0.952542126979982   0.110947288307020   1.0000000
B2   B   0.476106368620891   0.095632840917445   0.110916415910329   1.0000000
B2   B   0.475141635835955   0.238156951972019   0.111043163210849   1.0000000
B2   B   0.474197013655378   0.665672745981761   0.111084884107218   1.0000000
B2   B   0.475825751228305   0.809348003796536   0.111014683350955   1.0000000
B2   B   0.618826832184736   0.952620125713294   0.110936029088147   1.0000000
B2   B   0.618899516895001   0.095374223458826   0.110927913235979   1.0000000
B2   B   0.618710827963350   0.238038140629689   0.110931893803707   1.0000000
B2   B   0.618443534984584   0.381213434787051   0.111057853380248   1.0000000
B2   B   0.617109234688577   0.519465402649377   0.111517128974745   1.0000000
B2   B   0.615974209612403   0.666729303193132   0.111298700708921   1.0000000
B2   B   0.618323635488840   0.810022356780811   0.110910913654892   1.0000000
B2   B   0.761691399517370   0.952265415290383   0.110915236842545   1.0000000
B2   B   0.761775505925694   0.095217029665719   0.111009320269470   1.0000000
B2   B   0.761700654087021   0.238069492003559   0.110998286248175   1.0000000
B2   B   0.761384381091865   0.380848356927527   0.110925596392741   1.0000000
B2   B   0.762531275729715   0.523760005247898   0.111037067353098   1.0000000
B2   B   0.766622647888752   0.669026342932364   0.111211638007004   1.0000000
B2   B   0.761591277811530   0.808964306266404   0.110965142582008   1.0000000
C2   C   0.473042010813167   0.379063807050238   0.111459316358017   1.0000000
C2   C   0.473390197595192   0.522632259968739   0.111530822650338   1.0000000
C2   C   0.519922465199074   0.473407497034345   0.111689833071016   1.0000000
C2   C   0.667634058780038   0.619387129639389   0.111569311939917   1.0000000
N2   N   0.953590215054882   0.905997270104623   0.110898505595095   1.0000000
N2   N   0.952506725633860   0.047818139320769   0.110927551868361   1.0000000
N2   N   0.952279739011601   0.190401051186612   0.110964793931173   1.0000000
N2   N   0.952395668584024   0.333185448660395   0.110954492730752   1.0000000
N2   N   0.952755440559094   0.475964031219552   0.110909374619745   1.0000000
N2   N   0.953679314328524   0.619075770269765   0.110966705120421   1.0000000
N2   N   0.953698347345229   0.762655911071710   0.110967951659850   1.0000000
N2   N   0.095875137919146   0.905304438562031   0.110910111848659   1.0000000
N2   N   0.095968710649863   0.048441298715088   0.110895036468533   1.0000000
N2   N   0.095584323416478   0.190878152276864   0.110900890982310   1.0000000
N2   N   0.095442825484320   0.333182128549646   0.110910211520129   1.0000000
N2   N   0.095587621678515   0.475958546771522   0.110974117434213   1.0000000
N2   N   0.095664738156162   0.618905288359799   0.110996691150200   1.0000000
N2   N   0.095872986305275   0.762128290323920   0.110944268031827   1.0000000
N2   N   0.238366414236698   0.904954491232659   0.110912218074684   1.0000000
N2   N   0.238269349927139   0.047842726872113   0.110965457639542   1.0000000
N2   N   0.238901972372481   0.191287831751897   0.110981183105791   1.0000000
N2   N   0.239126080666561   0.333875260106142   0.110985178674119   1.0000000
N2   N   0.238745878598874   0.475943156967272   0.111005646552331   1.0000000
N2   N   0.237858399967484   0.618821980219262   0.111085647033665   1.0000000
N2   N   0.238240350323070   0.761939718387816   0.111015052705781   1.0000000
N2   N   0.380972190097084   0.904865089283520   0.110970322650353   1.0000000
N2   N   0.380969954628450   0.047630197755498   0.110946900982131   1.0000000
N2   N   0.380583014812725   0.189959957385746   0.111055465859526   1.0000000
N2   N   0.383602685135998   0.333380837834887   0.111228930690603   1.0000000
N2   N   0.384013178270869   0.478383656649205   0.111224939158486   1.0000000
N2   N   0.379710791199710   0.618971162627638   0.111087032733688   1.0000000
N2   N   0.380669912586012   0.761949529278238   0.111072451606660   1.0000000
N2   N   0.523551626020594   0.904664549568035   0.110948492584660   1.0000000
N2   N   0.523649613864244   0.047887540626475   0.110883872961101   1.0000000
N2   N   0.523381924727857   0.191180006854774   0.110918307705104   1.0000000
N2   N   0.520500702319459   0.334428198854999   0.111177427856432   1.0000000
N2   N   0.519081894722290   0.615251137075852   0.111253681257211   1.0000000
N2   N   0.522982083582339   0.761104218537783   0.110947367911188   1.0000000
N2   N   0.666267030483023   0.905002054284206   0.110869352123260   1.0000000
N2   N   0.666448506240116   0.047740070144461   0.110942932977860   1.0000000
N2   N   0.666345634660027   0.190477183041586   0.110939734364104   1.0000000
N2   N   0.665400995000046   0.332744130778923   0.110912139344503   1.0000000
N2   N   0.667575970276337   0.474540051296184   0.111120106590605   1.0000000
N2   N   0.664766861676999   0.761754671845319   0.110981354721419   1.0000000
N2   N   0.809180173684546   0.904420834794734   0.110893049391319   1.0000000
N2   N   0.809343438932234   0.047495366473213   0.110973311018975   1.0000000
N2   N   0.809336611254206   0.190413045829791   0.111016748951612   1.0000000
N2   N   0.809195275071784   0.333204347406605   0.110939024194005   1.0000000
N2   N   0.810044557336900   0.476004028858738   0.110914819874560   1.0000000
N2   N   0.812382779053828   0.619816660210920   0.111033845950779   1.0000000
N2   N   0.812014011801771   0.763927013291778   0.110991347821053   1.0000000


