data_1
_audit_creation_method   'vasp2cif'
_cell_length_a    17.52789999999977
_cell_length_b    17.52789999999977
_cell_length_c    15.0
_cell_angle_alpha    90.0
_cell_angle_beta    90.0
_cell_angle_gamma    119.99999999999916

_symmetry_space_group_name_H-M    'P 1'
loop_
_atom_site_label
_atom_site_type_symbol
_atom_site_fract_x
_atom_site_fract_y
_atom_site_fract_z
_atom_site_occupancy
B2   B   0.904651778799246   0.952366311299496   0.110960954116090   1.0000000
B2   B   0.904790832422162   0.095286369422828   0.111014568823320   1.0000000
B2   B   0.904780829804894   0.238124362384330   0.111033159030828   1.0000000
B2   B   0.904699988246638   0.380919686155962   0.110968360561623   1.0000000
B2   B   0.905237945947442   0.523808790467150   0.110966360439041   1.0000000
B2   B   0.905886773516788   0.666816335861498   0.111024598328247   1.0000000
B2   B   0.905619231040286   0.810430037425102   0.110990309939959   1.0000000
B2   B   0.048027522192732   0.952858272619061   0.110962307188597   1.0000000
B2   B   0.047801179856795   0.095496137563787   0.110958858770455   1.0000000
B2   B   0.047811508595107   0.238212432891717   0.110952441626682   1.0000000
B2   B   0.047762373280325   0.380899047350685   0.110982078285130   1.0000000
B2   B   0.047799697521028   0.523732475477972   0.110986931349016   1.0000000
B2   B   0.048085822077012   0.666710776001065   0.111015737391910   1.0000000
B2   B   0.047879090333254   0.809679850921619   0.110966022833825   1.0000000
B2   B   0.190420743223934   0.952278685390686   0.110962769595985   1.0000000
B2   B   0.190635423159560   0.095377305065861   0.111013411313907   1.0000000
B2   B   0.190975496606754   0.238571394154275   0.110966139024181   1.0000000
B2   B   0.190906413669052   0.380988193390467   0.110964368707708   1.0000000
B2   B   0.190461940076901   0.523772084060281   0.111053850769654   1.0000000
B2   B   0.190367205071301   0.666708318027706   0.111070694781379   1.0000000
B2   B   0.190542086100553   0.809566850705162   0.110973109830267   1.0000000
B2   B   0.333332794138369   0.952302803518699   0.110982087516037   1.0000000
B2   B   0.332960833312956   0.094579548229093   0.111040952049749   1.0000000
B2   B   0.333237246515964   0.237074523967068   0.111093429420794   1.0000000
B2   B   0.334796212485257   0.381748167306405   0.111109687039518   1.0000000
B2   B   0.333111101054984   0.524593531050251   0.111079744475583   1.0000000
B2   B   0.332600044498734   0.666916902664918   0.111098923432335   1.0000000
B2   B   0.333295314443044   0.809625660099372   0.111064981057246   1.0000000
B2   B   0.476219330613192   0.952393010041478   0.110979929732476   1.0000000
B2   B   0.476118269709105   0.095788038095327   0.110953237285555   1.0000000
B2   B   0.475068172213238   0.238597481597577   0.111043254028499   1.0000000
B2   B   0.474223654334085   0.664871227893221   0.111033788069775   1.0000000
B2   B   0.476060429494148   0.808844437967358   0.111020251794310   1.0000000
B2   B   0.619000765073826   0.952359619154676   0.110959837697561   1.0000000
B2   B   0.618972535181565   0.095414224276777   0.110960653996362   1.0000000
B2   B   0.618856248880086   0.238430587040782   0.110961372932732   1.0000000
B2   B   0.619115788435972   0.382244939229573   0.111030161252744   1.0000000
B2   B   0.619899971867405   0.522992308535274   0.111325927606076   1.0000000
B2   B   0.618022155018479   0.665242010627196   0.111194178454333   1.0000000
B2   B   0.619038041494499   0.809335309644922   0.110931627860220   1.0000000
B2   B   0.761813009786558   0.952156478644867   0.110949166322845   1.0000000
B2   B   0.761867581478884   0.095248727674775   0.111028196186078   1.0000000
B2   B   0.761787619510784   0.238232436090624   0.111038100443334   1.0000000
B2   B   0.761588126065715   0.381177040881813   0.110959806311866   1.0000000
B2   B   0.762962046030903   0.524424710973619   0.110994166194923   1.0000000
B2   B   0.764190276060843   0.667780193485484   0.111131026409032   1.0000000
B2   B   0.761284493914207   0.808576494209021   0.110963081848296   1.0000000
C2   C   0.473975372393720   0.380774349796353   0.111329730418355   1.0000000
C2   C   0.474306676081985   0.522457235556164   0.111331396676003   1.0000000
C2   C   0.518663684792488   0.472920043294834   0.111462463315649   1.0000000
C2   C   0.667045259087217   0.618743290677164   0.111433174993855   1.0000000
N2   N   0.953422727357835   0.905924820350709   0.110952801802536   1.0000000
N2   N   0.952745299146953   0.048086666862489   0.110967028378169   1.0000000
N2   N   0.952717589393549   0.190739515126709   0.110994976956145   1.0000000
N2   N   0.952604089671684   0.333339136642486   0.110978683331400   1.0000000
N2   N   0.952810750439869   0.475985737283878   0.110932722843516   1.0000000
N2   N   0.953510531729380   0.618991291903055   0.111000787998672   1.0000000
N2   N   0.953423072075269   0.762490978462640   0.110999742390523   1.0000000
N2   N   0.095735648483830   0.905228904545405   0.110938726922987   1.0000000
N2   N   0.095931588107732   0.048409290872836   0.110955375783407   1.0000000
N2   N   0.096050445005235   0.191148307409877   0.110924493131499   1.0000000
N2   N   0.095942979703433   0.333513987474171   0.110931575074323   1.0000000
N2   N   0.095602387042673   0.476046265832687   0.110986673475702   1.0000000
N2   N   0.095621012311040   0.618923513389342   0.111008341802720   1.0000000
N2   N   0.095757112844429   0.762078859015585   0.110957281149776   1.0000000
N2   N   0.238330813641928   0.904957821008885   0.110935311596015   1.0000000
N2   N   0.238227035224178   0.047849694665186   0.111009577582764   1.0000000
N2   N   0.238860917534136   0.191265045031040   0.111001047134010   1.0000000
N2   N   0.239931448708202   0.334269324215799   0.110952818196178   1.0000000
N2   N   0.238601330722453   0.476043267280971   0.111010420987920   1.0000000
N2   N   0.237864965107808   0.618842171787922   0.111082251210474   1.0000000
N2   N   0.238241795320296   0.761932796321410   0.111024035983447   1.0000000
N2   N   0.380983559672366   0.904843123853149   0.110998713175206   1.0000000
N2   N   0.380944843067463   0.047773179068542   0.110974113616285   1.0000000
N2   N   0.380510897139691   0.190235434791922   0.111050195010118   1.0000000
N2   N   0.382924671821998   0.333660914221341   0.111175736939248   1.0000000
N2   N   0.382902978127801   0.477580131510102   0.111158375000800   1.0000000
N2   N   0.379724132432471   0.618646215444808   0.111033986987125   1.0000000
N2   N   0.380709189119855   0.761748258926810   0.111071884183147   1.0000000
N2   N   0.523534307140559   0.904387532773512   0.110967664542765   1.0000000
N2   N   0.523609183755868   0.047985257717677   0.110929300920161   1.0000000
N2   N   0.523256508369193   0.191649911665571   0.110940082074012   1.0000000
N2   N   0.520321076621593   0.335201820070737   0.111133167602041   1.0000000
N2   N   0.518620878823745   0.613072926716216   0.111144423253423   1.0000000
N2   N   0.522861017518794   0.760166491731815   0.110952793253843   1.0000000
N2   N   0.666325463380155   0.904870622618319   0.110912434027190   1.0000000
N2   N   0.666472979414013   0.047767627245435   0.110964903895643   1.0000000
N2   N   0.666302346407353   0.190651222158316   0.110978106017944   1.0000000
N2   N   0.665409516027797   0.333032005987663   0.110934893600516   1.0000000
N2   N   0.667478354236461   0.474772460930148   0.111032356743976   1.0000000
N2   N   0.665218666890223   0.761892182057120   0.110941753054262   1.0000000
N2   N   0.809406958530932   0.904830182113997   0.110926460163203   1.0000000
N2   N   0.809567351061858   0.047791394295454   0.110998607799390   1.0000000
N2   N   0.809497872127254   0.190600346054766   0.111044724982658   1.0000000
N2   N   0.809273487173049   0.333282524446741   0.110982179758447   1.0000000
N2   N   0.810130396354174   0.475954694589407   0.110932791337472   1.0000000
N2   N   0.811985999140476   0.619370960440658   0.110990838762978   1.0000000
N2   N   0.811620756855987   0.763800000518289   0.110973472036047   1.0000000


