data_1
_audit_creation_method   'vasp2cif'
_cell_length_a    14.93631414619966
_cell_length_b    14.936314146199727
_cell_length_c    13.341276283792837
_cell_angle_alpha    90.0
_cell_angle_beta    90.0
_cell_angle_gamma    119.99999999999984

_symmetry_space_group_name_H-M    'P 1'
loop_
_atom_site_label
_atom_site_type_symbol
_atom_site_fract_x
_atom_site_fract_y
_atom_site_fract_z
_atom_site_occupancy
C2   C   0.552809880513078   0.443071606923203   0.375000000000000   1.0000000
N2   N   0.111121344381569   0.055574943169201   0.124899265860090   1.0000000
N2   N   0.611141393365367   0.555631055548681   0.124454288463918   1.0000000
N2   N   0.444476958222909   0.055571115758819   0.124900401613996   1.0000000
N2   N   0.944430685005113   0.555540932329606   0.124908114539115   1.0000000
N2   N   0.777806418033245   0.055569875683290   0.124871702420212   1.0000000
N2   N   0.111107990202032   0.722220661767681   0.625109056750036   1.0000000
N2   N   0.444476958222909   0.722239175797425   0.625099598386004   1.0000000
N2   N   0.277787071196636   0.222238290081074   0.624961594768820   1.0000000
N2   N   0.777782293987072   0.722250795512216   0.625146806025426   1.0000000
N2   N   0.611146562021066   0.222204755237088   0.625204935173417   1.0000000
N2   N   0.944458482696448   0.222220747552118   0.625113032875472   1.0000000
N2   N   0.277794853516485   0.722224528560014   0.124894620460826   1.0000000
N2   N   0.111111704263244   0.222222518798286   0.124899449614756   1.0000000
N2   N   0.444480522487223   0.222231993004310   0.124988287275033   1.0000000
N2   N   0.611146562021066   0.722275140117306   0.124795064826582   1.0000000
N2   N   0.944430685005113   0.722223086008842   0.124908114539115   1.0000000
N2   N   0.777806023624060   0.222210268879851   0.124877817109651   1.0000000
N2   N   0.111113218931537   0.888902881015106   0.625113183368835   1.0000000
N2   N   0.444471934286288   0.888902633809809   0.625103934098526   1.0000000
N2   N   0.277787071196636   0.388882114448890   0.624961594768820   1.0000000
N2   N   0.611141393365367   0.388843671150014   0.625545711536082   1.0000000
N2   N   0.777806023624060   0.888929088077537   0.625122182890348   1.0000000
N2   N   0.944451745838329   0.388875954701225   0.625088308844276   1.0000000
N2   N   0.111121344381569   0.388879734545697   0.124899265860090   1.0000000
N2   N   0.277794853516485   0.888903658289799   0.124894620460826   1.0000000
N2   N   0.611143562024851   0.888919098239331   0.124886728004039   1.0000000
N2   N   0.444446162200660   0.388889747766994   0.124403581833350   1.0000000
N2   N   0.944451745838329   0.888909124470432   0.124911691155724   1.0000000
N2   N   0.777782293987072   0.388864831808185   0.124853193974575   1.0000000
N2   N   0.277798749917490   0.555553365607988   0.625081437445891   1.0000000
N2   N   0.111121344381569   0.055574943169201   0.625100734139910   1.0000000
N2   N   0.611141393365367   0.555631055548681   0.625545711536082   1.0000000
N2   N   0.444476958222909   0.055571115758819   0.625099598386004   1.0000000
N2   N   0.944430685005113   0.555540932329606   0.625091885460886   1.0000000
N2   N   0.111113218931537   0.555543671249759   0.124886816631165   1.0000000
N2   N   0.777806418033245   0.055569875683290   0.625128297579789   1.0000000
N2   N   0.277798749917490   0.055578717642839   0.124918562554109   1.0000000
N2   N   0.444480522487223   0.555581862816248   0.124988287275033   1.0000000
N2   N   0.777759123684568   0.555546228508951   0.124852866112102   1.0000000
N2   N   0.611143562024851   0.055557797118849   0.124886728004039   1.0000000
N2   N   0.444480522487223   0.555581862816248   0.625011712724967   1.0000000
N2   N   0.944458482696448   0.055571068477666   0.124886967124527   1.0000000
N2   N   0.277794853516485   0.722224528560014   0.625105379539174   1.0000000
N2   N   0.111111704263244   0.222222518798286   0.625100550385244   1.0000000
N2   N   0.444480522487223   0.222231993004310   0.625011712724967   1.0000000
N2   N   0.611146562021066   0.722275140117306   0.625204935173417   1.0000000
N2   N   0.944430685005113   0.722223086008842   0.625091885460886   1.0000000
N2   N   0.777806023624060   0.222210268879851   0.625122182890348   1.0000000
N2   N   0.111107990202032   0.722220661767681   0.124890943249964   1.0000000
N2   N   0.444476958222909   0.722239175797425   0.124900401613996   1.0000000
N2   N   0.277787071196636   0.222238290081074   0.125038405231181   1.0000000
N2   N   0.777782293987072   0.722250795512216   0.124853193974575   1.0000000
N2   N   0.611146562021066   0.222204755237088   0.124795064826582   1.0000000
N2   N   0.944458482696448   0.222220747552118   0.124886967124527   1.0000000
N2   N   0.111121344381569   0.388879734545697   0.625100734139910   1.0000000
N2   N   0.277794853516485   0.888903658289799   0.625105379539174   1.0000000
N2   N   0.611143562024851   0.888919098239331   0.625113271995960   1.0000000
N2   N   0.444446162200660   0.388889747766994   0.625596418166650   1.0000000
N2   N   0.944451745838329   0.888909124470432   0.625088308844276   1.0000000
N2   N   0.111113218931537   0.888902881015106   0.124886816631165   1.0000000
N2   N   0.777782293987072   0.388864831808185   0.625146806025426   1.0000000
N2   N   0.444471934286288   0.888902633809809   0.124896065901474   1.0000000
N2   N   0.277787071196636   0.388882114448890   0.125038405231181   1.0000000
N2   N   0.277798749917490   0.555553365607988   0.124918562554109   1.0000000
N2   N   0.611141393365367   0.388843671150014   0.124454288463918   1.0000000
N2   N   0.777806023624060   0.888929088077537   0.124877817109651   1.0000000
N2   N   0.944451745838329   0.388875954701225   0.124911691155724   1.0000000
N2   N   0.111113218931537   0.555543671249759   0.625113183368835   1.0000000
N2   N   0.277798749917490   0.055578717642839   0.625081437445891   1.0000000
N2   N   0.777759123684568   0.555546228508951   0.625147133887898   1.0000000
N2   N   0.611143562024851   0.055557797118849   0.625113271995960   1.0000000
N2   N   0.944458482696448   0.055571068477666   0.625113032875472   1.0000000
N2   N   0.056914523144952   0.111891070079126   0.375000000000000   1.0000000
N2   N   0.555590038263845   0.616060613189048   0.375000000000000   1.0000000
N2   N   0.388504884928684   0.109330895492107   0.375000000000000   1.0000000
N2   N   0.886937453217177   0.610135393275260   0.375000000000000   1.0000000
N2   N   0.722908439703058   0.111046605054966   0.375000000000000   1.0000000
N2   N   0.055558130389802   0.777777650116366   0.875000000000000   1.0000000
N2   N   0.388882827384492   0.777777923211195   0.875000000000000   1.0000000
N2   N   0.222221447502826   0.277777390418081   0.875000000000000   1.0000000
N2   N   0.722221037372736   0.777774103273452   0.875000000000000   1.0000000
N2   N   0.555550120803052   0.277773682600096   0.875000000000000   1.0000000
N2   N   0.888890532085583   0.277782967413767   0.875000000000000   1.0000000
N2   N   0.221245178631019   0.777289255982177   0.375000000000000   1.0000000
N2   N   0.056914523144952   0.278356786399161   0.375000000000000   1.0000000
N2   N   0.390696102212326   0.275061310326966   0.375000000000000   1.0000000
N2   N   0.555534005901215   0.779712856601616   0.375000000000000   1.0000000
N2   N   0.888095204870446   0.777434306247582   0.375000000000000   1.0000000
N2   N   0.722716392785179   0.276939421317743   0.375000000000000   1.0000000
N2   N   0.055555793862495   0.944439699155243   0.875000000000000   1.0000000
N2   N   0.388882827384492   0.944438237506633   0.875000000000000   1.0000000
N2   N   0.222218760905446   0.444448188471906   0.875000000000000   1.0000000
N2   N   0.555555069031347   0.444444201182338   0.875000000000000   1.0000000
N2   N   0.722216753606323   0.944440472451072   0.875000000000000   1.0000000
N2   N   0.888895207531181   0.444449872034251   0.875000000000000   1.0000000
N2   N   0.055843866800269   0.444502941839538   0.375000000000000   1.0000000
N2   N   0.221582855384509   0.943757297665810   0.375000000000000   1.0000000
N2   N   0.555499554133106   0.944416443733218   0.375000000000000   1.0000000
N2   N   0.390696102212326   0.448968125218695   0.375000000000000   1.0000000
N2   N   0.889746149217261   0.945176089581020   0.375000000000000   1.0000000
N2   N   0.719727438247798   0.442840820199326   0.375000000000000   1.0000000
N2   N   0.222217220991331   0.611114069014530   0.875000000000000   1.0000000
N2   N   0.055554313975553   0.111107224478480   0.875000000000000   1.0000000
N2   N   0.555550120803052   0.611109771536292   0.875000000000000   1.0000000
N2   N   0.388882826397456   0.111102090018597   0.875000000000000   1.0000000
N2   N   0.888900140163182   0.611116736748262   0.875000000000000   1.0000000
N2   N   0.054453054977996   0.610656124566716   0.375000000000000   1.0000000
N2   N   0.722216753606323   0.111109614488587   0.875000000000000   1.0000000
N2   N   0.223682657453551   0.111922278502018   0.375000000000000   1.0000000
N2   N   0.388504884928684   0.612507322769920   0.375000000000000   1.0000000
N2   N   0.719727438247798   0.610219951381809   0.375000000000000   1.0000000
N2   N   0.555534005901215   0.109154482632934   0.375000000000000   1.0000000
N2   N   0.388882826397456   0.611114069712202   0.875000000000000   1.0000000
N2   N   0.890043551633472   0.111688442483407   0.375000000000000   1.0000000
N2   N   0.222218655324822   0.777775994329079   0.875000000000000   1.0000000
N2   N   0.055554313975553   0.277780422830409   0.875000000000000   1.0000000
N2   N   0.388886140291891   0.277771517045717   0.875000000000000   1.0000000
N2   N   0.555548058894451   0.777775831459203   0.875000000000000   1.0000000
N2   N   0.888895207531181   0.777778668830264   0.875000000000000   1.0000000
N2   N   0.722221037372736   0.277780267432620   0.875000000000000   1.0000000
N2   N   0.054453054977996   0.777130263744615   0.375000000000000   1.0000000
N2   N   0.388238128134640   0.777991157549279   0.375000000000000   1.0000000
N2   N   0.224036688585950   0.278685010959643   0.375000000000000   1.0000000
N2   N   0.722716392785179   0.779110304800773   0.375000000000000   1.0000000
N2   N   0.555590038263846   0.272862758408133   0.375000000000000   1.0000000
N2   N   0.889746149217261   0.277903392969578   0.375000000000000   1.0000000
N2   N   0.055555793862495   0.444449428040580   0.875000000000000   1.0000000
N2   N   0.222217220991331   0.944436485310137   0.875000000000000   1.0000000
N2   N   0.555546413906642   0.944439873619986   0.875000000000000   1.0000000
N2   N   0.388886140291891   0.444447956579510   0.875000000000000   1.0000000
N2   N   0.888890532085583   0.944440898005151   0.875000000000000   1.0000000
N2   N   0.055843866800269   0.944674258294059   0.375000000000000   1.0000000
N2   N   0.722228116816201   0.444449769277906   0.875000000000000   1.0000000
N2   N   0.388238128134640   0.943580303918696   0.375000000000000   1.0000000
N2   N   0.223682657453551   0.445093712284870   0.375000000000000   1.0000000
N2   N   0.221582855384509   0.611158891052035   0.375000000000000   1.0000000
N2   N   0.722908439703058   0.945195167981428   0.375000000000000   1.0000000
N2   N   0.888095204870446   0.443994231956199   0.375000000000000   1.0000000
N2   N   0.055558130389802   0.611113813606772   0.875000000000000   1.0000000
N2   N   0.222218760905446   0.111103905766875   0.875000000000000   1.0000000
N2   N   0.722228116816201   0.611111680871631   0.875000000000000   1.0000000
N2   N   0.555548058894451   0.111105560768584   0.875000000000000   1.0000000
N2   N   0.888887816682198   0.111110575007770   0.875000000000000   1.0000000
B2   B   0.112674370280367   0.056461257814343   0.375000000000000   1.0000000
B2   B   0.605537266309717   0.556174321453492   0.375000000000000   1.0000000
B2   B   0.444290286404546   0.054619355345231   0.375000000000000   1.0000000
B2   B   0.942959687233345   0.555048590452522   0.375000000000000   1.0000000
B2   B   0.778800593697420   0.056066963515378   0.375000000000000   1.0000000
B2   B   0.111104846842739   0.722219090088034   0.875000000000000   1.0000000
B2   B   0.444434324041414   0.722182059140986   0.875000000000000   1.0000000
B2   B   0.277842837134245   0.222269707638143   0.875000000000000   1.0000000
B2   B   0.777739863270375   0.722163617760620   0.875000000000000   1.0000000
B2   B   0.611077671099278   0.222261011716356   0.875000000000000   1.0000000
B2   B   0.944461967286010   0.222239185252692   0.875000000000000   1.0000000
B2   B   0.277100774080111   0.722064373919844   0.375000000000000   1.0000000
B2   B   0.113438173262357   0.223385753297843   0.375000000000000   1.0000000
B2   B   0.445518919346788   0.221522119620456   0.375000000000000   1.0000000
B2   B   0.611487077898771   0.724899292212812   0.375000000000000   1.0000000
B2   B   0.942959687233345   0.721244430114159   0.375000000000000   1.0000000
B2   B   0.778554920030024   0.222226271187852   0.375000000000000   1.0000000
B2   B   0.111118094278104   0.888893978325345   0.875000000000000   1.0000000
B2   B   0.444430224845147   0.888881779089238   0.875000000000000   1.0000000
B2   B   0.277842837134245   0.388906462829431   0.875000000000000   1.0000000
B2   B   0.611066496411778   0.388909721127700   0.875000000000000   1.0000000
B2   B   0.777759736070647   0.888848530962140   0.875000000000000   1.0000000
B2   B   0.944443816898309   0.388905716295051   0.875000000000000   1.0000000
B2   B   0.112674370280367   0.389546445799352   0.375000000000000   1.0000000
B2   B   0.277100774080111   0.888369733493594   0.375000000000000   1.0000000
B2   B   0.611541700089811   0.889858840076331   0.375000000000000   1.0000000
B2   B   0.944504040807927   0.888819178886691   0.375000000000000   1.0000000
B2   B   0.776233932027227   0.388336946705964   0.375000000000000   1.0000000
B2   B   0.277799820862258   0.555541976913539   0.875000000000000   1.0000000
B2   B   0.111148750665850   0.055577505337275   0.875000000000000   1.0000000
B2   B   0.611066496411778   0.555490108617406   0.875000000000000   1.0000000
B2   B   0.444434324041414   0.055585598233764   0.875000000000000   1.0000000
B2   B   0.944424193644327   0.555554501975114   0.875000000000000   1.0000000
B2   B   0.110587563988518   0.555509418913241   0.375000000000000   1.0000000
B2   B   0.777768302362212   0.055550817847774   0.875000000000000   1.0000000
B2   B   0.277914916176945   0.055298213256914   0.375000000000000   1.0000000
B2   B   0.445518919346788   0.557330133059668   0.375000000000000   1.0000000
B2   B   0.774470584268555   0.553901958800945   0.375000000000000   1.0000000
B2   B   0.611541700089811   0.055016193346809   0.375000000000000   1.0000000
B2   B   0.444447540885168   0.555507325507512   0.875000000000000   1.0000000
B2   B   0.945875296969794   0.056345709730421   0.375000000000000   1.0000000
B2   B   0.277777466419877   0.722211751383716   0.875000000000000   1.0000000
B2   B   0.111168795260562   0.222251064296945   0.875000000000000   1.0000000
B2   B   0.444447540885168   0.222273548710992   0.875000000000000   1.0000000
B2   B   0.611077671099278   0.722149992716252   0.875000000000000   1.0000000
B2   B   0.944424193644327   0.722203025002547   0.875000000000000   1.0000000
B2   B   0.777759736070647   0.222244538441836   0.875000000000000   1.0000000
B2   B   0.110046574655797   0.721689953994563   0.375000000000000   1.0000000
B2   B   0.444290286404546   0.723004264392652   0.375000000000000   1.0000000
B2   B   0.281946009688246   0.225421630806768   0.375000000000000   1.0000000
B2   B   0.776233932027227   0.721230318654592   0.375000000000000   1.0000000
B2   B   0.611487077898771   0.219921119019287   0.375000000000000   1.0000000
B2   B   0.945875296969794   0.222862920572709   0.375000000000000   1.0000000
B2   B   0.111148750665850   0.388904578661902   0.875000000000000   1.0000000
B2   B   0.277777466419877   0.888899048369489   0.875000000000000   1.0000000
B2   B   0.611088205085002   0.888856522599608   0.875000000000000   1.0000000
B2   B   0.444470477256533   0.388901905294931   0.875000000000000   1.0000000
B2   B   0.944443816898309   0.888871433936587   0.875000000000000   1.0000000
B2   B   0.110587563988518   0.888411478408605   0.375000000000000   1.0000000
B2   B   0.777739863270375   0.388909578843083   0.875000000000000   1.0000000
B2   B   0.444183570736457   0.888758452034893   0.375000000000000   1.0000000
B2   B   0.281946009688246   0.389857712214806   0.375000000000000   1.0000000
B2   B   0.277914916176945   0.555950036253366   0.375000000000000   1.0000000
B2   B   0.605537266309717   0.382696278189552   0.375000000000000   1.0000000
B2   B   0.778554920030024   0.889661982175499   0.375000000000000   1.0000000
B2   B   0.944504040807927   0.389018195254564   0.375000000000000   1.0000000
B2   B   0.111118094278104   0.555557449286088   0.875000000000000   1.0000000
B2   B   0.277799820862258   0.055591177282054   0.875000000000000   1.0000000
B2   B   0.777731838163225   0.555532585748280   0.875000000000000   1.0000000
B2   B   0.611088205085002   0.055565015818723   0.875000000000000   1.0000000
B2   B   0.944461967286010   0.055556115366653   0.875000000000000   1.0000000
B2   B   0.055638841023119   0.111184916073970   0.125086962998905   1.0000000
B2   B   0.555553390556963   0.610941673986131   0.125267158628315   1.0000000
B2   B   0.389002814160940   0.111350435273783   0.125268916123034   1.0000000
B2   B   0.888701271195165   0.611017302264254   0.125143996709180   1.0000000
B2   B   0.722237395094543   0.111134607969483   0.125038821395619   1.0000000
B2   B   0.055506214796997   0.777776561876723   0.624941063751591   1.0000000
B2   B   0.388950344052932   0.777747575560369   0.624935622552657   1.0000000
B2   B   0.222407322692408   0.277870328012871   0.624610424212415   1.0000000
B2   B   0.722168542498695   0.777704583648403   0.624924258727152   1.0000000
B2   B   0.555553390556963   0.277945049904168   0.624732841371685   1.0000000
B2   B   0.888889909402107   0.277771179848690   0.624941431369473   1.0000000
B2   B   0.222246575127809   0.777789954230573   0.125042445159556   1.0000000
B2   B   0.055638841023119   0.277787258282486   0.125086962998905   1.0000000
B2   B   0.389090626319834   0.278086882423011   0.125939021991125   1.0000000
B2   B   0.555592976126954   0.777711490183410   0.125082321967159   1.0000000
B2   B   0.888787781423465   0.777726938054735   0.125103557230010   1.0000000
B2   B   0.722168542498695   0.277797292183628   0.125075741272847   1.0000000
B2   B   0.055582306452511   0.944514274882156   0.624927031477208   1.0000000
B2   B   0.388950344052932   0.944536101825898   0.624935622552657   1.0000000
B2   B   0.222369648675921   0.444383805500402   0.624734556540036   1.0000000
B2   B   0.555419134921127   0.444376234127228   0.623521776914776   1.0000000
B2   B   0.722237395094543   0.944436120458395   0.624961178604381   1.0000000
B2   B   0.888787781423465   0.444394176702066   0.624896442769990   1.0000000
B2   B   0.055582306452511   0.444401364903685   0.125072968522791   1.0000000
B2   B   0.222284434603225   0.944570830720061   0.125077885594396   1.0000000
B2   B   0.555595339068246   0.944464336200788   0.125051730502041   1.0000000
B2   B   0.389090626319834   0.444337077230159   0.125939021991125   1.0000000
B2   B   0.888889909402107   0.944452062886753   0.125058568630528   1.0000000
B2   B   0.721974767350010   0.444355261952895   0.125191040719648   1.0000000
B2   B   0.222284434603225   0.611046937216501   0.624922114405604   1.0000000
B2   B   0.055638841023119   0.111184916073970   0.624913037001095   1.0000000
B2   B   0.555553390556963   0.610941673986131   0.624732841371685   1.0000000
B2   B   0.389002814160940   0.111350435273783   0.624731083876966   1.0000000
B2   B   0.888701271195165   0.611017302264254   0.624856003290820   1.0000000
B2   B   0.055506214796997   0.611062986253611   0.125058936248408   1.0000000
B2   B   0.722237395094543   0.111134607969483   0.624961178604381   1.0000000
B2   B   0.222369648675921   0.111319176508855   0.125265443459964   1.0000000
B2   B   0.389002814160940   0.610985712220499   0.125268916123034   1.0000000
B2   B   0.721974767350010   0.610952838730451   0.125191040719648   1.0000000
B2   B   0.555592976126954   0.111214819276880   0.125082321967159   1.0000000
B2   B   0.389002814160940   0.610985712220499   0.624731083876966   1.0000000
B2   B   0.888922838537834   0.111128085935589   0.125032572188188   1.0000000
B2   B   0.222246575127809   0.777789954230573   0.624957554840444   1.0000000
B2   B   0.055638841023119   0.277787258282486   0.624913037001095   1.0000000
B2   B   0.389090626319834   0.278086882423011   0.624060978008873   1.0000000
B2   B   0.555592976126954   0.777711490183410   0.624917678032841   1.0000000
B2   B   0.888787781423465   0.777726938054735   0.624896442769990   1.0000000
B2   B   0.722168542498695   0.277797292183628   0.624924258727152   1.0000000
B2   B   0.055506214796997   0.777776561876723   0.125058936248408   1.0000000
B2   B   0.388950344052932   0.777747575560369   0.125064377447343   1.0000000
B2   B   0.222407322692408   0.277870328012871   0.125389575787585   1.0000000
B2   B   0.722168542498695   0.777704583648403   0.125075741272847   1.0000000
B2   B   0.555553390556963   0.277945049904168   0.125267158628315   1.0000000
B2   B   0.888889909402107   0.277771179848690   0.125058568630528   1.0000000
B2   B   0.055582306452511   0.444401364903685   0.624927031477208   1.0000000
B2   B   0.222284434603225   0.944570830720061   0.624922114405604   1.0000000
B2   B   0.555595339068246   0.944464336200788   0.624948269497960   1.0000000
B2   B   0.389090626319834   0.444337077230159   0.624060978008873   1.0000000
B2   B   0.888889909402107   0.944452062886753   0.624941431369473   1.0000000
B2   B   0.055582306452511   0.944514274882156   0.125072968522791   1.0000000
B2   B   0.721974767350010   0.444355261952895   0.624808959280352   1.0000000
B2   B   0.388950344052932   0.944536101825898   0.125064377447343   1.0000000
B2   B   0.222369648675921   0.444383805500402   0.125265443459964   1.0000000
B2   B   0.222284434603225   0.611046937216501   0.125077885594396   1.0000000
B2   B   0.555419134921127   0.444376234127228   0.126478223085225   1.0000000
B2   B   0.722237395094543   0.944436120458395   0.125038821395619   1.0000000
B2   B   0.888787781423465   0.444394176702066   0.125103557230010   1.0000000
B2   B   0.055506214796997   0.611062986253611   0.624941063751591   1.0000000
B2   B   0.222369648675921   0.111319176508855   0.624734556540036   1.0000000
B2   B   0.721974767350010   0.610952838730451   0.624808959280352   1.0000000
B2   B   0.555592976126954   0.111214819276880   0.624917678032841   1.0000000
B2   B   0.888922838537834   0.111128085935589   0.624967427811814   1.0000000


