data_1
_audit_creation_method   'vasp2cif'
_cell_length_a    17.52789999999977
_cell_length_b    17.52789999999977
_cell_length_c    15.0
_cell_angle_alpha    90.0
_cell_angle_beta    90.0
_cell_angle_gamma    119.99999999999916

_symmetry_space_group_name_H-M    'P 1'
loop_
_atom_site_label
_atom_site_type_symbol
_atom_site_fract_x
_atom_site_fract_y
_atom_site_fract_z
_atom_site_occupancy
B2   B   0.904509845417490   0.952116376902089   0.111019512017194   1.0000000
B2   B   0.904805956751596   0.095195678898175   0.111055101674126   1.0000000
B2   B   0.904799085306423   0.238155154099261   0.111053256456925   1.0000000
B2   B   0.904495669514319   0.380957701816632   0.111011237436374   1.0000000
B2   B   0.902850688103876   0.523312639930308   0.111015807128918   1.0000000
B2   B   0.902492699040993   0.665525248229234   0.111030248733568   1.0000000
B2   B   0.902859645308428   0.808118147459332   0.111023012978010   1.0000000
B2   B   0.047491051256838   0.952510751229997   0.110995676091142   1.0000000
B2   B   0.047885357627108   0.095491928006516   0.111017837699248   1.0000000
B2   B   0.047917933229372   0.238232225377170   0.111007504833924   1.0000000
B2   B   0.047890449133053   0.380946706863287   0.111020730422408   1.0000000
B2   B   0.047476961773053   0.523540164719040   0.111014101430479   1.0000000
B2   B   0.046865386300002   0.666233093817121   0.111024878646566   1.0000000
B2   B   0.046871970880399   0.809208824179501   0.111002517365144   1.0000000
B2   B   0.190792163706238   0.953128698805603   0.110995740683605   1.0000000
B2   B   0.191883605514142   0.097141881356798   0.111015530699270   1.0000000
B2   B   0.191195749007719   0.238845636618034   0.111023684992987   1.0000000
B2   B   0.191203877880325   0.380915272341516   0.111009720099428   1.0000000
B2   B   0.191874767675545   0.523300746620411   0.111009822874738   1.0000000
B2   B   0.190781369430490   0.666222457160600   0.111047636166233   1.0000000
B2   B   0.190475174702158   0.809526677455651   0.111008017237063   1.0000000
B2   B   0.333768718867173   0.953136376084082   0.111022587159663   1.0000000
B2   B   0.334476208154247   0.097508606434807   0.111020947303826   1.0000000
B2   B   0.337087499558008   0.243177176775071   0.111053695803485   1.0000000
B2   B   0.334133732576055   0.381362581880338   0.111047460923738   1.0000000
B2   B   0.337094251421401   0.522484498457223   0.111042568292685   1.0000000
B2   B   0.334470860368531   0.665531298013111   0.111048422409880   1.0000000
B2   B   0.333779636664315   0.809220667568897   0.111051940902785   1.0000000
B2   B   0.476461748086721   0.952524893724592   0.111018373253869   1.0000000
B2   B   0.476689146232838   0.097150952102244   0.111014955711301   1.0000000
B2   B   0.477513523457612   0.243190253127831   0.111018567630647   1.0000000
B2   B   0.484282932080462   0.397175046211564   0.111060747713323   1.0000000
B2   B   0.484313117788679   0.515689013513103   0.111065334851913   1.0000000
B2   B   0.477517382645613   0.662907614345012   0.111039397361760   1.0000000
B2   B   0.476701407306324   0.808126770131872   0.111016159528053   1.0000000
B2   B   0.619054742903366   0.952111266456648   0.111026411952066   1.0000000
B2   B   0.619044422977834   0.095506434546585   0.111015301261562   1.0000000
B2   B   0.619067350632341   0.238859648878610   0.111022661453723   1.0000000
B2   B   0.618639066871793   0.381362544687395   0.111014885772654   1.0000000
B2   B   0.602826895539853   0.515718805723141   0.111076366041492   1.0000000
B2   B   0.618639317071558   0.665868073668901   0.111038865362296   1.0000000
B2   B   0.619086737630640   0.808797919957737   0.111009601551229   1.0000000
B2   B   0.761769601285336   0.952083821119143   0.111012685007341   1.0000000
B2   B   0.761846728159490   0.095202635860097   0.111059024867154   1.0000000
B2   B   0.761753351996644   0.238248715694841   0.111057984724721   1.0000000
B2   B   0.761142201648854   0.380934308300254   0.111025292882874   1.0000000
B2   B   0.756811387023302   0.522487663770207   0.111025971055044   1.0000000
B2   B   0.756824637160521   0.662914614046211   0.111057333333268   1.0000000
B2   B   0.761156154748026   0.808806379326200   0.111025525500234   1.0000000
N2   N   0.951834079484607   0.904184775644632   0.110997833805346   1.0000000
N2   N   0.952436490429593   0.047564904352065   0.111019381578832   1.0000000
N2   N   0.952429298284398   0.190491310627654   0.111025984303877   1.0000000
N2   N   0.952431358212456   0.333429189555923   0.111009512904950   1.0000000
N2   N   0.951819176637669   0.476213731607953   0.110995017141177   1.0000000
N2   N   0.951368525390033   0.618691573072420   0.111007299600996   1.0000000
N2   N   0.951370838036812   0.761245203299278   0.111009844197836   1.0000000
N2   N   0.095171962097369   0.904829380553810   0.110974562334592   1.0000000
N2   N   0.095817047938095   0.048167614445846   0.110998646290346   1.0000000
N2   N   0.095405693816276   0.190573467946103   0.110992317652160   1.0000000
N2   N   0.095409261662245   0.333385381556497   0.110994285582866   1.0000000
N2   N   0.095812022997327   0.476207795701126   0.110999737399484   1.0000000
N2   N   0.095160794649806   0.618902852117529   0.111012048108549   1.0000000
N2   N   0.094935644564580   0.761753888283141   0.110995577516317   1.0000000
N2   N   0.238248050913331   0.905066193788586   0.110988110332144   1.0000000
N2   N   0.238755911717854   0.048630001890772   0.110996793245533   1.0000000
N2   N   0.240064382502960   0.192661119776398   0.111018025299454   1.0000000
N2   N   0.238149643669148   0.333356445338257   0.111004036487403   1.0000000
N2   N   0.240068686047008   0.475970073943502   0.111007234512948   1.0000000
N2   N   0.238749374209298   0.618687469827803   0.111012925388326   1.0000000
N2   N   0.238248417353335   0.761753484114365   0.111025876276506   1.0000000
N2   N   0.381099206507881   0.904841245601720   0.111014382182626   1.0000000
N2   N   0.381309973231067   0.048632984875936   0.111006631259089   1.0000000
N2   N   0.382110334680131   0.192796928952991   0.111013810014060   1.0000000
N2   N   0.385092948678100   0.338692478364053   0.111041783195506   1.0000000
N2   N   0.385108806661582   0.474983626957150   0.111038667633588   1.0000000
N2   N   0.382113124029028   0.617888399853009   0.111031137093640   1.0000000
N2   N   0.381314182555959   0.761252816464049   0.111024743714574   1.0000000
N2   N   0.523794504876552   0.904190519798867   0.111002657961643   1.0000000
N2   N   0.523787918483235   0.048182425448985   0.110999100097871   1.0000000
N2   N   0.524018455592740   0.192670769898740   0.111002687138902   1.0000000
N2   N   0.525011322412954   0.338702200368707   0.111009286336599   1.0000000
N2   N   0.525018115380651   0.614893081364593   0.111025810327898   1.0000000
N2   N   0.524031014312917   0.759933182576033   0.111009749352502   1.0000000
N2   N   0.666616432961101   0.904592829202214   0.110997512133832   1.0000000
N2   N   0.666572442818689   0.047570042438752   0.111019602604416   1.0000000
N2   N   0.666600472366958   0.190588351520126   0.111021263232213   1.0000000
N2   N   0.666631250173582   0.333370642618628   0.111004097867470   1.0000000
N2   N   0.661298635229135   0.474989981077420   0.111017016219562   1.0000000
N2   N   0.661309536299111   0.614909391053258   0.111036574234608   1.0000000
N2   N   0.666645557051635   0.761852151191449   0.111000536160373   1.0000000
N2   N   0.809428122365876   0.904595535147801   0.110996239745913   1.0000000
N2   N   0.809510467678932   0.047572286826563   0.111032624401194   1.0000000
N2   N   0.809503266081274   0.190498530286807   0.111042874420026   1.0000000
N2   N   0.809413564212597   0.333401427846383   0.111022409024350   1.0000000
N2   N   0.807330799080942   0.475982892237420   0.111008634473553   1.0000000
N2   N   0.807203135247200   0.617890274686287   0.111023238966429   1.0000000
N2   N   0.807340949112846   0.759937517157353   0.111025388642971   1.0000000


