data_1
_audit_creation_method   'vasp2cif'
_cell_length_a    14.93631414619966
_cell_length_b    14.936314146199727
_cell_length_c    13.341276283792837
_cell_angle_alpha    90.0
_cell_angle_beta    90.0
_cell_angle_gamma    119.99999999999984

_symmetry_space_group_name_H-M    'P 1'
loop_
_atom_site_label
_atom_site_type_symbol
_atom_site_fract_x
_atom_site_fract_y
_atom_site_fract_z
_atom_site_occupancy
Al2   Al   0.468127904027195   0.400730618680262   0.375000000000000   1.0000000
N2   N   0.111177893323402   0.055582371425944   0.124750719751084   1.0000000
N2   N   0.611202745411234   0.555618431757490   0.126493551569298   1.0000000
N2   N   0.444481576934743   0.055547627397741   0.124828937301517   1.0000000
N2   N   0.944511813813464   0.555588998934946   0.125068234197176   1.0000000
N2   N   0.777812813008117   0.055573073170723   0.124999239112120   1.0000000
N2   N   0.111163211115294   0.722248272224312   0.624983730418078   1.0000000
N2   N   0.444481576934743   0.722267282870337   0.625171062698487   1.0000000
N2   N   0.277873687168212   0.222257267553154   0.624192069034271   1.0000000
N2   N   0.777847126318291   0.722255062042613   0.624895392895553   1.0000000
N2   N   0.611145310445722   0.222227005821802   0.624900700695812   1.0000000
N2   N   0.944505302143180   0.222255790324791   0.625084918928428   1.0000000
N2   N   0.277817976303239   0.722250558951124   0.124920064391430   1.0000000
N2   N   0.111201468519403   0.222267400926365   0.124876768132830   1.0000000
N2   N   0.444519685441198   0.222229606865977   0.126008087926261   1.0000000
N2   N   0.611145310445722   0.722251637957246   0.125099299304190   1.0000000
N2   N   0.944511813813464   0.722256148211860   0.125068234197176   1.0000000
N2   N   0.777817924315922   0.222245654983373   0.124992259115079   1.0000000
N2   N   0.111164222439608   0.888909217276295   0.625070580918840   1.0000000
N2   N   0.444472747710938   0.888903040522133   0.625109864126582   1.0000000
N2   N   0.277873687168212   0.388949752948384   0.624192069034271   1.0000000
N2   N   0.611202745411234   0.388917646987071   0.623506448430700   1.0000000
N2   N   0.777817924315922   0.888905602665875   0.625007740884924   1.0000000
N2   N   0.944505554489188   0.388919439876866   0.625055486731592   1.0000000
N2   N   0.111177893323402   0.388928855230786   0.124750719751084   1.0000000
N2   N   0.277817976303239   0.888900750685444   0.124920064391430   1.0000000
N2   N   0.611138265506669   0.888909624143659   0.124927629276137   1.0000000
N2   N   0.444660132510785   0.388996732922056   0.131622514792356   1.0000000
N2   N   0.944505554489188   0.888919447945650   0.124944513268406   1.0000000
N2   N   0.777847126318291   0.388925397609008   0.125104607104447   1.0000000
N2   N   0.277828534208226   0.555602261221741   0.625084207064420   1.0000000
N2   N   0.111177893323402   0.055582371425944   0.625249280248918   1.0000000
N2   N   0.611202745411234   0.555618431757490   0.623506448430700   1.0000000
N2   N   0.444481576934743   0.055547627397741   0.625171062698487   1.0000000
N2   N   0.944511813813464   0.555588998934946   0.624931765802825   1.0000000
N2   N   0.111164222439608   0.555588338496640   0.124929419081162   1.0000000
N2   N   0.777812813008117   0.055573073170723   0.625000760887880   1.0000000
N2   N   0.277828534208226   0.055559606319818   0.124915792935577   1.0000000
N2   N   0.444519685441198   0.555623411908555   0.126008087926261   1.0000000
N2   N   0.777849248927875   0.555591291130604   0.125446782135070   1.0000000
N2   N   0.611138265506669   0.055561974696340   0.124927629276137   1.0000000
N2   N   0.444519685441198   0.555623411908555   0.623991912073737   1.0000000
N2   N   0.944505302143180   0.055582845151730   0.124915081071577   1.0000000
N2   N   0.277817976303239   0.722250558951124   0.625079935608570   1.0000000
N2   N   0.111201468519403   0.222267400926365   0.625123231867172   1.0000000
N2   N   0.444519685441198   0.222229606865977   0.623991912073737   1.0000000
N2   N   0.611145310445722   0.722251637957246   0.624900700695812   1.0000000
N2   N   0.944511813813464   0.722256148211860   0.624931765802825   1.0000000
N2   N   0.777817924315922   0.222245654983373   0.625007740884924   1.0000000
N2   N   0.111163211115294   0.722248272224312   0.125016269581927   1.0000000
N2   N   0.444481576934743   0.722267282870337   0.124828937301517   1.0000000
N2   N   0.277873687168212   0.222257267553154   0.125807930965729   1.0000000
N2   N   0.777847126318291   0.722255062042613   0.125104607104447   1.0000000
N2   N   0.611145310445722   0.222227005821802   0.125099299304190   1.0000000
N2   N   0.944505302143180   0.222255790324791   0.124915081071577   1.0000000
N2   N   0.111177893323402   0.388928855230786   0.625249280248918   1.0000000
N2   N   0.277817976303239   0.888900750685444   0.625079935608570   1.0000000
N2   N   0.611138265506669   0.888909624143659   0.625072370723862   1.0000000
N2   N   0.444660132510785   0.388996732922056   0.618377485207645   1.0000000
N2   N   0.944505554489188   0.888919447945650   0.625055486731592   1.0000000
N2   N   0.111164222439608   0.888909217276295   0.124929419081162   1.0000000
N2   N   0.777847126318291   0.388925397609008   0.624895392895553   1.0000000
N2   N   0.444472747710938   0.888903040522133   0.124890135873418   1.0000000
N2   N   0.277873687168212   0.388949752948384   0.125807930965729   1.0000000
N2   N   0.277828534208226   0.555602261221741   0.124915792935577   1.0000000
N2   N   0.611202745411234   0.388917646987071   0.126493551569298   1.0000000
N2   N   0.777817924315922   0.888905602665875   0.124992259115079   1.0000000
N2   N   0.944505554489188   0.388919439876866   0.124944513268406   1.0000000
N2   N   0.111164222439608   0.555588338496640   0.625070580918840   1.0000000
N2   N   0.277828534208226   0.055559606319818   0.625084207064420   1.0000000
N2   N   0.777849248927875   0.555591291130604   0.624553217864927   1.0000000
N2   N   0.611138265506669   0.055561974696340   0.625072370723862   1.0000000
N2   N   0.944505302143180   0.055582845151730   0.625084918928428   1.0000000
N2   N   0.055231032713566   0.110924858882211   0.375000000000000   1.0000000
N2   N   0.554764263347757   0.609585392058526   0.375000000000000   1.0000000
N2   N   0.387737890707638   0.106875967205187   0.375000000000000   1.0000000
N2   N   0.888696178185003   0.611014755759169   0.375000000000000   1.0000000
N2   N   0.722158998043711   0.111054003233381   0.375000000000000   1.0000000
N2   N   0.055560393855399   0.777781786939815   0.875000000000000   1.0000000
N2   N   0.388894873571194   0.777779441049245   0.875000000000000   1.0000000
N2   N   0.222231722727818   0.277782528030578   0.875000000000000   1.0000000
N2   N   0.722228199587656   0.777780042629051   0.875000000000000   1.0000000
N2   N   0.555562612227463   0.277779876268415   0.875000000000000   1.0000000
N2   N   0.888896879749099   0.277777915563926   0.875000000000000   1.0000000
N2   N   0.221298470844943   0.777315902089136   0.375000000000000   1.0000000
N2   N   0.055231032713566   0.277639507164692   0.375000000000000   1.0000000
N2   N   0.385834920640435   0.268204885518957   0.375000000000000   1.0000000
N2   N   0.555471317087195   0.777771564334069   0.375000000000000   1.0000000
N2   N   0.888406127804216   0.777487138249488   0.375000000000000   1.0000000
N2   N   0.721963400283023   0.277739366163569   0.375000000000000   1.0000000
N2   N   0.055559977743104   0.944448963793842   0.875000000000000   1.0000000
N2   N   0.388894873571194   0.944448765855283   0.875000000000000   1.0000000
N2   N   0.222221649339541   0.444442002371976   0.875000000000000   1.0000000
N2   N   0.555544872540529   0.444439102936929   0.875000000000000   1.0000000
N2   N   0.722232937969643   0.944450590533291   0.875000000000000   1.0000000
N2   N   0.888904042878022   0.444447042507784   0.875000000000000   1.0000000
N2   N   0.054491795231719   0.444335686478679   0.375000000000000   1.0000000
N2   N   0.221001351175619   0.942960233504724   0.375000000000000   1.0000000
N2   N   0.555522998476277   0.944428165904802   0.375000000000000   1.0000000
N2   N   0.385834920640435   0.450963368454808   0.375000000000000   1.0000000
N2   N   0.888538445699873   0.944310494334489   0.375000000000000   1.0000000
N2   N   0.722485030063148   0.445133582146758   0.375000000000000   1.0000000
N2   N   0.222228683476862   0.611109847544820   0.875000000000000   1.0000000
N2   N   0.055558148551375   0.111114933861635   0.875000000000000   1.0000000
N2   N   0.555562612227463   0.611116069292382   0.875000000000000   1.0000000
N2   N   0.388902425180102   0.111130242749740   0.875000000000000   1.0000000
N2   N   0.888884679935791   0.611109006634569   0.875000000000000   1.0000000
N2   N   0.054700863581466   0.610845773129638   0.375000000000000   1.0000000
N2   N   0.722232937969643   0.111115680769691   0.875000000000000   1.0000000
N2   N   0.220368493583520   0.108796317875281   0.375000000000000   1.0000000
N2   N   0.387737890707638   0.614195256835797   0.375000000000000   1.0000000
N2   N   0.722485030063148   0.610684781249724   0.375000000000000   1.0000000
N2   N   0.555471317087195   0.111033086086466   0.375000000000000   1.0000000
N2   N   0.388902425180102   0.611105515763704   0.875000000000000   1.0000000
N2   N   0.888680536853293   0.111006935093318   0.375000000000000   1.0000000
N2   N   0.222226813050022   0.777780073191679   0.875000000000000   1.0000000
N2   N   0.055558148551375   0.277776548023075   0.875000000000000   1.0000000
N2   N   0.388898140272515   0.277796333097766   0.875000000000000   1.0000000
N2   N   0.555561842126478   0.777789084653306   0.875000000000000   1.0000000
N2   N   0.888904042878022   0.777790333703569   0.875000000000000   1.0000000
N2   N   0.722228199587656   0.277781490291943   0.875000000000000   1.0000000
N2   N   0.054700863581466   0.777188423785165   0.375000000000000   1.0000000
N2   N   0.388319046712474   0.778449187588501   0.375000000000000   1.0000000
N2   N   0.222508129902327   0.277920731617832   0.375000000000000   1.0000000
N2   N   0.721963400283023   0.777557367452794   0.375000000000000   1.0000000
N2   N   0.554764263347757   0.278512204622568   0.375000000000000   1.0000000
N2   N   0.888538445699873   0.277561284698719   0.375000000000000   1.0000000
N2   N   0.055559977743104   0.444444347282590   0.875000000000000   1.0000000
N2   N   0.222228683476862   0.944452169265376   0.875000000000000   1.0000000
N2   N   0.555561881028223   0.944447607180774   0.875000000000000   1.0000000
N2   N   0.388898140272515   0.444435140508083   0.875000000000000   1.0000000
N2   N   0.888896879749099   0.944452297518514   0.875000000000000   1.0000000
N2   N   0.054491795231719   0.943489442086366   0.375000000000000   1.0000000
N2   N   0.722223568401583   0.444440737991205   0.875000000000000   1.0000000
N2   N   0.388319046712474   0.943203192457307   0.375000000000000   1.0000000
N2   N   0.220368493583520   0.444905509041575   0.375000000000000   1.0000000
N2   N   0.221001351175619   0.611374451004227   0.375000000000000   1.0000000
N2   N   0.722158998043711   0.944438328143668   0.375000000000000   1.0000000
N2   N   0.888406127804216   0.444252322888061   0.375000000000000   1.0000000
N2   N   0.055560393855399   0.611111940248915   0.875000000000000   1.0000000
N2   N   0.222221649339541   0.111112980300901   0.875000000000000   1.0000000
N2   N   0.722223568401583   0.611116163743711   0.875000000000000   1.0000000
N2   N   0.555561842126478   0.111106090806510   0.875000000000000   1.0000000
N2   N   0.888896548023182   0.111114940678262   0.875000000000000   1.0000000
B2   B   0.109800090978578   0.054419589862967   0.375000000000000   1.0000000
B2   B   0.615657671027933   0.561720083904544   0.375000000000000   1.0000000
B2   B   0.444044776267148   0.053210613867957   0.375000000000000   1.0000000
B2   B   0.944393464037626   0.555296101843817   0.375000000000000   1.0000000
B2   B   0.777885990596037   0.055609661964687   0.375000000000000   1.0000000
B2   B   0.111324115585520   0.722328724459422   0.875000000000000   1.0000000
B2   B   0.444349552959941   0.722046344614877   0.875000000000000   1.0000000
B2   B   0.277638270544884   0.222294783263989   0.875000000000000   1.0000000
B2   B   0.777719733728030   0.722367180728837   0.875000000000000   1.0000000
B2   B   0.611315562256385   0.222287236242825   0.875000000000000   1.0000000
B2   B   0.944360522045828   0.222021478384956   0.875000000000000   1.0000000
B2   B   0.277004291768510   0.722281535010775   0.375000000000000   1.0000000
B2   B   0.111215286999180   0.222274310166255   0.375000000000000   1.0000000
B2   B   0.441087554360298   0.215790039557906   0.375000000000000   1.0000000
B2   B   0.611545367436484   0.723306128252605   0.375000000000000   1.0000000
B2   B   0.944393464037626   0.722430695527147   0.375000000000000   1.0000000
B2   B   0.777893196648968   0.221799250749177   0.375000000000000   1.0000000
B2   B   0.111023169980483   0.889001483868069   0.875000000000000   1.0000000
B2   B   0.444643277747708   0.888988305540519   0.875000000000000   1.0000000
B2   B   0.277638270544884   0.388676820614226   0.875000000000000   1.0000000
B2   B   0.611039966080918   0.388948087402574   0.875000000000000   1.0000000
B2   B   0.777712833677511   0.888742019093962   0.875000000000000   1.0000000
B2   B   0.944669129326449   0.388981134499372   0.875000000000000   1.0000000
B2   B   0.109800090978578   0.388713834448939   0.375000000000000   1.0000000
B2   B   0.277004291768510   0.888056090091057   0.375000000000000   1.0000000
B2   B   0.611287227037952   0.889212911457594   0.375000000000000   1.0000000
B2   B   0.944011066017871   0.888880854181944   0.375000000000000   1.0000000
B2   B   0.778490970893993   0.388189463979067   0.375000000000000   1.0000000
B2   B   0.277947853561124   0.555636387583543   0.875000000000000   1.0000000
B2   B   0.111008340974554   0.055364450495927   0.875000000000000   1.0000000
B2   B   0.611039966080918   0.555425212011670   0.875000000000000   1.0000000
B2   B   0.444349552959941   0.055636541678402   0.875000000000000   1.0000000
B2   B   0.944383330485208   0.555653357877349   0.875000000000000   1.0000000
B2   B   0.110161367066364   0.555337192363314   0.375000000000000   1.0000000
B2   B   0.778001042494813   0.055667187914075   0.875000000000000   1.0000000
B2   B   0.276161904896662   0.053442493847401   0.375000000000000   1.0000000
B2   B   0.441087554360298   0.558630848135726   0.375000000000000   1.0000000
B2   B   0.779575638082934   0.556454485708132   0.375000000000000   1.0000000
B2   B   0.611287227037952   0.055407648913690   0.375000000000000   1.0000000
B2   B   0.444326522790079   0.555658530278876   0.875000000000000   1.0000000
B2   B   0.944361918555778   0.055674489365526   0.375000000000000   1.0000000
B2   B   0.277676275189632   0.722318758082662   0.875000000000000   1.0000000
B2   B   0.111282163876688   0.222307748605009   0.875000000000000   1.0000000
B2   B   0.444326522790079   0.222001325844536   0.875000000000000   1.0000000
B2   B   0.611315562256385   0.722361659346884   0.875000000000000   1.0000000
B2   B   0.944383330485208   0.722063305941193   0.875000000000000   1.0000000
B2   B   0.777712833677511   0.222304147916874   0.875000000000000   1.0000000
B2   B   0.110432973247920   0.721883153290624   0.375000000000000   1.0000000
B2   B   0.444044776267148   0.724167495732526   0.375000000000000   1.0000000
B2   B   0.276074595603290   0.219682527995663   0.375000000000000   1.0000000
B2   B   0.778490970893993   0.723634840248254   0.375000000000000   1.0000000
B2   B   0.611545367436484   0.221572572517204   0.375000000000000   1.0000000
B2   B   0.944361918555778   0.222020762523591   0.375000000000000   1.0000000
B2   B   0.111008340974554   0.388977223811955   0.875000000000000   1.0000000
B2   B   0.277676275189632   0.888690850440298   0.875000000000000   1.0000000
B2   B   0.611025652187634   0.889008472310001   0.875000000000000   1.0000000
B2   B   0.444561714519891   0.388947523926610   0.875000000000000   1.0000000
B2   B   0.944669129326449   0.889021328160403   0.875000000000000   1.0000000
B2   B   0.110161367066364   0.888157508036381   0.375000000000000   1.0000000
B2   B   0.777719733728030   0.388685886332522   0.875000000000000   1.0000000
B2   B   0.444317416053934   0.888825374693629   0.375000000000000   1.0000000
B2   B   0.276074595603290   0.389725400940959   0.375000000000000   1.0000000
B2   B   0.276161904896662   0.556052744382597   0.375000000000000   1.0000000
B2   B   0.615657671027933   0.387270920456721   0.375000000000000   1.0000000
B2   B   0.777893196648968   0.889427279233116   0.375000000000000   1.0000000
B2   B   0.944011066017871   0.388463545169259   0.375000000000000   1.0000000
B2   B   0.111023169980483   0.555355019445739   0.875000000000000   1.0000000
B2   B   0.277947853561124   0.055644799310919   0.875000000000000   1.0000000
B2   B   0.778006379769161   0.555669856551248   0.875000000000000   1.0000000
B2   B   0.611025652187634   0.055350513210960   0.875000000000000   1.0000000
B2   B   0.944360522045828   0.055672376994208   0.875000000000000   1.0000000
B2   B   0.055622054085933   0.111144103821209   0.125055533905046   1.0000000
B2   B   0.555535732664967   0.611327549849984   0.125611652650536   1.0000000
B2   B   0.388810431500078   0.110899502439901   0.125180914229748   1.0000000
B2   B   0.889172103880861   0.611252718607098   0.125075125975919   1.0000000
B2   B   0.722261081022162   0.111085405130234   0.125119056304402   1.0000000
B2   B   0.055718293518922   0.777862696782832   0.624851023348978   1.0000000
B2   B   0.388871287585306   0.777827909435828   0.624975518411499   1.0000000
B2   B   0.222195648795392   0.277764491064365   0.624258304796583   1.0000000
B2   B   0.722327506710362   0.777939770175540   0.625021428762024   1.0000000
B2   B   0.555535732664967   0.277541516148321   0.624388347349459   1.0000000
B2   B   0.888997854809188   0.277791137112709   0.624898250304863   1.0000000
B2   B   0.222282127279886   0.777807730306614   0.125091298984950   1.0000000
B2   B   0.055622054085933   0.277811283598058   0.125055533905046   1.0000000
B2   B   0.388661677029586   0.277370632598243   0.127920300264987   1.0000000
B2   B   0.555534756576901   0.777898136671217   0.125010802058741   1.0000000
B2   B   0.889102107265366   0.777934307370592   0.125066216777200   1.0000000
B2   B   0.722327506710362   0.277721069868158   0.124978571237978   1.0000000
B2   B   0.055659109831693   0.944500978319093   0.625004984523630   1.0000000
B2   B   0.388871287585306   0.944376711482811   0.624975518411499   1.0000000
B2   B   0.222205662828032   0.444507539147194   0.624750636789029   1.0000000
B2   B   0.555859341401153   0.444596337367241   0.622854930435184   1.0000000
B2   B   0.722261081022162   0.944509009225262   0.624880943695601   1.0000000
B2   B   0.889102107265366   0.444501133228109   0.624933783222799   1.0000000
B2   B   0.055659109831693   0.444491464845927   0.124995015476371   1.0000000
B2   B   0.222252366181732   0.944409345109805   0.125074143132462   1.0000000
B2   B   0.555547613524185   0.944440473428757   0.125012314969688   1.0000000
B2   B   0.388661677029586   0.444624377764676   0.127920300264987   1.0000000
B2   B   0.888997854809188   0.944540051029817   0.125101749695139   1.0000000
B2   B   0.722526929342137   0.444523780679580   0.125273582240697   1.0000000
B2   B   0.222252366181732   0.611176354405265   0.624925856867540   1.0000000
B2   B   0.055622054085933   0.111144103821209   0.624944466094954   1.0000000
B2   B   0.555535732664967   0.611327549849984   0.624388347349459   1.0000000
B2   B   0.388810431500078   0.110899502439901   0.624819085770249   1.0000000
B2   B   0.889172103880861   0.611252718607098   0.624924874024079   1.0000000
B2   B   0.055718293518922   0.611188930069430   0.125148976651022   1.0000000
B2   B   0.722261081022162   0.111085405130234   0.624880943695601   1.0000000
B2   B   0.222205662828032   0.111031457014175   0.125249363210973   1.0000000
B2   B   0.388810431500078   0.611244262393523   0.125180914229748   1.0000000
B2   B   0.722526929342137   0.611336481995898   0.125273582240697   1.0000000
B2   B   0.555534756576901   0.110969953239022   0.125010802058741   1.0000000
B2   B   0.388810431500078   0.611244262393523   0.624819085770249   1.0000000
B2   B   0.888963929843274   0.111148631588308   0.125093416907942   1.0000000
B2   B   0.222282127279886   0.777807730306614   0.624908701015053   1.0000000
B2   B   0.055622054085933   0.277811283598058   0.624944466094954   1.0000000
B2   B   0.388661677029586   0.277370632598243   0.622079699735009   1.0000000
B2   B   0.555534756576901   0.777898136671217   0.624989197941253   1.0000000
B2   B   0.889102107265366   0.777934307370592   0.624933783222799   1.0000000
B2   B   0.722327506710362   0.277721069868158   0.625021428762024   1.0000000
B2   B   0.055718293518922   0.777862696782832   0.125148976651022   1.0000000
B2   B   0.388871287585306   0.777827909435828   0.125024481588504   1.0000000
B2   B   0.222195648795392   0.277764491064365   0.125741695203416   1.0000000
B2   B   0.722327506710362   0.777939770175540   0.124978571237978   1.0000000
B2   B   0.555535732664967   0.277541516148321   0.125611652650536   1.0000000
B2   B   0.888997854809188   0.277791137112709   0.125101749695139   1.0000000
B2   B   0.055659109831693   0.444491464845927   0.625004984523630   1.0000000
B2   B   0.222252366181732   0.944409345109805   0.624925856867540   1.0000000
B2   B   0.555547613524185   0.944440473428757   0.624987685030316   1.0000000
B2   B   0.388661677029586   0.444624377764676   0.622079699735009   1.0000000
B2   B   0.888997854809188   0.944540051029817   0.624898250304863   1.0000000
B2   B   0.055659109831693   0.944500978319093   0.124995015476371   1.0000000
B2   B   0.722526929342137   0.444523780679580   0.624726417759304   1.0000000
B2   B   0.388871287585306   0.944376711482811   0.125024481588504   1.0000000
B2   B   0.222205662828032   0.444507539147194   0.125249363210973   1.0000000
B2   B   0.222252366181732   0.611176354405265   0.125074143132462   1.0000000
B2   B   0.555859341401153   0.444596337367241   0.127145069564815   1.0000000
B2   B   0.722261081022162   0.944509009225262   0.125119056304402   1.0000000
B2   B   0.889102107265366   0.444501133228109   0.125066216777200   1.0000000
B2   B   0.055718293518922   0.611188930069430   0.624851023348978   1.0000000
B2   B   0.222205662828032   0.111031457014175   0.624750636789029   1.0000000
B2   B   0.722526929342137   0.611336481995898   0.624726417759304   1.0000000
B2   B   0.555534756576901   0.110969953239022   0.624989197941253   1.0000000
B2   B   0.888963929843274   0.111148631588308   0.624906583092060   1.0000000


