data_1
_audit_creation_method   'vasp2cif'
_cell_length_a    17.52789999999977
_cell_length_b    17.52789999999977
_cell_length_c    15.0
_cell_angle_alpha    90.0
_cell_angle_beta    90.0
_cell_angle_gamma    119.99999999999916

_symmetry_space_group_name_H-M    'P 1'
loop_
_atom_site_label
_atom_site_type_symbol
_atom_site_fract_x
_atom_site_fract_y
_atom_site_fract_z
_atom_site_occupancy
Sb2   Sb   0.523693426252135   0.493765492803758   0.109194701399202   1.0000000
B2   B   0.906054554665966   0.952911578132823   0.107724730277759   1.0000000
B2   B   0.903572368468486   0.093835843949566   0.110145933563184   1.0000000
B2   B   0.903129012079983   0.236232084395682   0.110538239938062   1.0000000
B2   B   0.903830001499855   0.379361547689951   0.108165833565141   1.0000000
B2   B   0.906558518938486   0.523338917265648   0.104835450275453   1.0000000
B2   B   0.909190069677863   0.667851480835308   0.106760926636859   1.0000000
B2   B   0.909338573909553   0.812005749063494   0.105701895934990   1.0000000
B2   B   0.048804977931347   0.952848131089754   0.108157064819269   1.0000000
B2   B   0.047336468127985   0.094999825322267   0.111296149649264   1.0000000
B2   B   0.045742589324227   0.236702674968890   0.112551222881727   1.0000000
B2   B   0.045350244701227   0.379339384634258   0.113037249376151   1.0000000
B2   B   0.046355619126587   0.522886771284201   0.109504253126198   1.0000000
B2   B   0.048333179963753   0.666780732462231   0.105220189032986   1.0000000
B2   B   0.049535364212240   0.810256386456793   0.105333340093425   1.0000000
B2   B   0.190679683666109   0.952079505708148   0.110408755790131   1.0000000
B2   B   0.189097933550303   0.093657697636708   0.111365204027857   1.0000000
B2   B   0.189158851713791   0.237709764174703   0.108496392188521   1.0000000
B2   B   0.187309817167477   0.379681976923287   0.110801353790774   1.0000000
B2   B   0.186541143012401   0.522916588985975   0.115426422569665   1.0000000
B2   B   0.187954174500052   0.666469336618616   0.112916269382631   1.0000000
B2   B   0.190411767453652   0.809547718728166   0.109760176087762   1.0000000
B2   B   0.332766721493374   0.951549104383768   0.111822565206600   1.0000000
B2   B   0.332406192896491   0.093474169230639   0.110351146746415   1.0000000
B2   B   0.328445113082251   0.232969183622746   0.102173832123089   1.0000000
B2   B   0.331273265091202   0.383095998464590   0.094119046794120   1.0000000
B2   B   0.326229168635565   0.523240049534265   0.105721193962490   1.0000000
B2   B   0.327327409602299   0.667082624112784   0.114477407643330   1.0000000
B2   B   0.331903077818028   0.809400424476120   0.113105710787381   1.0000000
B2   B   0.475147232141405   0.950473027033530   0.111012025128760   1.0000000
B2   B   0.475365997441159   0.092543210462890   0.110916230083732   1.0000000
B2   B   0.475036956260519   0.233236396360405   0.108004061605174   1.0000000
B2   B   0.465606851915696   0.361366451237411   0.090498265824030   1.0000000
B2   B   0.485958621934062   0.582972709140575   0.099393543394231   1.0000000
B2   B   0.465584371787079   0.664201092218340   0.108122454208554   1.0000000
B2   B   0.474045208542544   0.807687110331702   0.111945601279983   1.0000000
B2   B   0.617596683607500   0.949749083320605   0.108971302129654   1.0000000
B2   B   0.618041881522569   0.092986757235248   0.109003382660210   1.0000000
B2   B   0.618543961882104   0.236071898998536   0.110322615479030   1.0000000
B2   B   0.620265313972817   0.379882452282267   0.120369563150329   1.0000000
B2   B   0.645384060599184   0.535646863109363   0.161921401239988   1.0000000
B2   B   0.635032364470317   0.671551481925043   0.131922185104286   1.0000000
B2   B   0.617073024963183   0.806155973054885   0.112007302648178   1.0000000
B2   B   0.760964674387204   0.950669565071967   0.108698306177925   1.0000000
B2   B   0.760509928945310   0.093125895879870   0.108618463064749   1.0000000
B2   B   0.760902465174432   0.236104330126220   0.108643645058073   1.0000000
B2   B   0.762414947558321   0.379631480450767   0.110649901183277   1.0000000
B2   B   0.768989670622836   0.524620964836318   0.121946653763629   1.0000000
B2   B   0.775111900177875   0.673335129705275   0.128347216802333   1.0000000
B2   B   0.766172577710348   0.811428623798504   0.113550049223771   1.0000000
N2   N   0.954275893375005   0.906031062065051   0.105613830387941   1.0000000
N2   N   0.952271740025729   0.047390367926168   0.109855528113244   1.0000000
N2   N   0.950728344912998   0.188791061384191   0.111631105842419   1.0000000
N2   N   0.950526453523450   0.331379553343208   0.110689906246529   1.0000000
N2   N   0.951844194424462   0.474622738567075   0.106050879506660   1.0000000
N2   N   0.953847750412791   0.618603500546141   0.102956870500978   1.0000000
N2   N   0.954894541336319   0.762754601181612   0.104007712776938   1.0000000
N2   N   0.096014247728431   0.905059882201647   0.107897366585816   1.0000000
N2   N   0.094807890364663   0.047287275002276   0.111340276437366   1.0000000
N2   N   0.094390714034449   0.190131637296341   0.112028531847689   1.0000000
N2   N   0.092804963506421   0.331666367399428   0.113668372638290   1.0000000
N2   N   0.092362787896198   0.474520081293059   0.113840781580008   1.0000000
N2   N   0.093749352168675   0.618144330694489   0.108862120409694   1.0000000
N2   N   0.095753695385693   0.761881811093393   0.106208116701849   1.0000000
N2   N   0.237962168655486   0.904508028913903   0.110926321041831   1.0000000
N2   N   0.237649780414887   0.047034174111816   0.111566274721859   1.0000000
N2   N   0.235302292863343   0.188363853636440   0.108910872651533   1.0000000
N2   N   0.236822039055500   0.333651304722633   0.104641883369881   1.0000000
N2   N   0.232967627476528   0.474527394453023   0.113149556538396   1.0000000
N2   N   0.233489650447140   0.618103052609632   0.116514002480507   1.0000000
N2   N   0.236982117314688   0.761583280696395   0.112214160395294   1.0000000
N2   N   0.380211423038661   0.904114328455009   0.112142311134153   1.0000000
N2   N   0.380442010043604   0.046539987118901   0.111591131851022   1.0000000
N2   N   0.379765347194720   0.188744555011667   0.106476292341861   1.0000000
N2   N   0.374320555530120   0.327542069548589   0.089922651275783   1.0000000
N2   N   0.376316825845381   0.480063408594936   0.092143378330885   1.0000000
N2   N   0.372231759306007   0.618734227946544   0.109997999209992   1.0000000
N2   N   0.378840094429081   0.761610641145289   0.113963189819383   1.0000000
N2   N   0.522533748664870   0.902547094562499   0.110458155034838   1.0000000
N2   N   0.523048649300002   0.045483793239725   0.110257793160614   1.0000000
N2   N   0.523325939693474   0.187696879423873   0.110679051724908   1.0000000
N2   N   0.523678940452285   0.329116529167675   0.106635725726385   1.0000000
N2   N   0.521062305539023   0.758396305571142   0.111330042771134   1.0000000
N2   N   0.665073011209576   0.901218777423485   0.108962527919025   1.0000000
N2   N   0.665348330013152   0.045040431692486   0.108357251809955   1.0000000
N2   N   0.665740522930298   0.188574623711441   0.108743124773982   1.0000000
N2   N   0.666554521869984   0.332323052457461   0.113521202029200   1.0000000
N2   N   0.674577591408281   0.476534688916411   0.139518975590267   1.0000000
N2   N   0.684685245222265   0.629152780726955   0.154929766705507   1.0000000
N2   N   0.669543441617062   0.761379868234168   0.118813778481862   1.0000000
N2   N   0.810597125638830   0.904873282403231   0.108481254936625   1.0000000
N2   N   0.808151408239296   0.045550318114269   0.108759502014450   1.0000000
N2   N   0.808005818190010   0.188332727704648   0.108997355139850   1.0000000
N2   N   0.808586318436061   0.331505055668092   0.108238091046303   1.0000000
N2   N   0.811765468938284   0.475199244584074   0.108825673424469   1.0000000
N2   N   0.815263006268653   0.620151371929663   0.118626028877461   1.0000000
N2   N   0.815077728596529   0.765142934159908   0.112020600893033   1.0000000


