data_1
_audit_creation_method   'vasp2cif'
_cell_length_a    17.52789999999977
_cell_length_b    17.52789999999977
_cell_length_c    15.0
_cell_angle_alpha    90.0
_cell_angle_beta    90.0
_cell_angle_gamma    119.99999999999916

_symmetry_space_group_name_H-M    'P 1'
loop_
_atom_site_label
_atom_site_type_symbol
_atom_site_fract_x
_atom_site_fract_y
_atom_site_fract_z
_atom_site_occupancy
B2   B   0.904885538750079   0.951418457186627   0.111011402317203   1.0000000
B2   B   0.906265671584041   0.094497377342080   0.111134843669564   1.0000000
B2   B   0.906356067137562   0.237347482342417   0.111078449757115   1.0000000
B2   B   0.905553137978701   0.380402652072364   0.110828392283836   1.0000000
B2   B   0.903143385102854   0.523130688738146   0.110908013558428   1.0000000
B2   B   0.901937882596314   0.665433521006451   0.110942782993849   1.0000000
B2   B   0.902328659157645   0.807710664547357   0.110872999703319   1.0000000
B2   B   0.049590884230421   0.955189758972140   0.110976608100080   1.0000000
B2   B   0.050617485747232   0.097359141379132   0.111119276972005   1.0000000
B2   B   0.049862914556328   0.238988088316843   0.111030382094208   1.0000000
B2   B   0.047909554777053   0.381519673543431   0.110920785451471   1.0000000
B2   B   0.046182311212104   0.524598574419399   0.111043440628050   1.0000000
B2   B   0.046006090046093   0.667625324094418   0.110975772444929   1.0000000
B2   B   0.046957988047581   0.810944910662979   0.110972879335970   1.0000000
B2   B   0.192340327748973   0.956427050931052   0.111091491823047   1.0000000
B2   B   0.197889287816974   0.103656730929358   0.111296417696113   1.0000000
B2   B   0.195816194177187   0.242954339965172   0.111269492907333   1.0000000
B2   B   0.190904577227974   0.383350762397493   0.111021110695395   1.0000000
B2   B   0.188174215296226   0.525623601142732   0.111318020606584   1.0000000
B2   B   0.188951616204116   0.668593673808444   0.111159853587530   1.0000000
B2   B   0.190115195921460   0.811988662034815   0.111033749824744   1.0000000
B2   B   0.334482031310824   0.955429232011637   0.111022936616625   1.0000000
B2   B   0.337610094679483   0.101487445865832   0.111463787835700   1.0000000
B2   B   0.351403528264820   0.255913797669986   0.111952403725025   1.0000000
B2   B   0.335947411678717   0.388824031432511   0.110475433981328   1.0000000
B2   B   0.329129411322006   0.527896112850344   0.109423866006367   1.0000000
B2   B   0.331450386697772   0.669141966455311   0.111446826575397   1.0000000
B2   B   0.332860367308381   0.811630244309200   0.111286121435736   1.0000000
B2   B   0.476818098717563   0.951883890346187   0.111034179847485   1.0000000
B2   B   0.478584313076513   0.095096132328468   0.111511170047347   1.0000000
B2   B   0.483780179990276   0.241091118347499   0.109226152850356   1.0000000
B2   B   0.473150545748148   0.664723074379324   0.110570986532062   1.0000000
B2   B   0.475512752511078   0.808668658958321   0.111262294599503   1.0000000
B2   B   0.619442869704420   0.950185779154766   0.110893555376654   1.0000000
B2   B   0.620644038642716   0.093313172388545   0.111051549284134   1.0000000
B2   B   0.621708735925453   0.235836402919962   0.112232231703352   1.0000000
B2   B   0.618509713856377   0.374402392481840   0.109662958456028   1.0000000
B2   B   0.604658016673677   0.505524444609399   0.111317991976912   1.0000000
B2   B   0.613129124008214   0.658688627267438   0.110724951763666   1.0000000
B2   B   0.617611644727301   0.806050786561856   0.111102697025137   1.0000000
B2   B   0.761922797047142   0.949959686722670   0.111047320196685   1.0000000
B2   B   0.763211694493308   0.093388027618705   0.111106598845074   1.0000000
B2   B   0.763786311618844   0.236409079662399   0.110783396245513   1.0000000
B2   B   0.763180371578898   0.378882944911211   0.111835344325825   1.0000000
B2   B   0.758289802250251   0.520289845702252   0.111529999633789   1.0000000
B2   B   0.754405358236279   0.659297127515570   0.111081575568851   1.0000000
B2   B   0.758916656916601   0.805191657461056   0.110924806106913   1.0000000
C2   C   0.465231305913729   0.520463162742829   0.113056407158222   1.0000000
C2   C   0.494303324218945   0.450776437211789   0.111686927122520   1.0000000
N2   N   0.952733489074623   0.904539183261723   0.110935035207207   1.0000000
N2   N   0.954247950927915   0.047491782736556   0.111056785766346   1.0000000
N2   N   0.954326078447729   0.190043851074540   0.111081227551023   1.0000000
N2   N   0.953272507421379   0.332826152199389   0.111071978684167   1.0000000
N2   N   0.951622448616409   0.476024525542000   0.111159770134016   1.0000000
N2   N   0.950813876146057   0.618972195394275   0.110696815755633   1.0000000
N2   N   0.951044636432806   0.761532692519296   0.110860873136816   1.0000000
N2   N   0.096298713481795   0.907041157948183   0.110886523879030   1.0000000
N2   N   0.099935246031372   0.051970868886851   0.111082181831879   1.0000000
N2   N   0.099101509642802   0.192981283129037   0.111166384489127   1.0000000
N2   N   0.095901287732024   0.334287280322027   0.110795619827179   1.0000000
N2   N   0.093636896972457   0.476993106573422   0.110818968829945   1.0000000
N2   N   0.093764994838366   0.620219536622497   0.111040837277051   1.0000000
N2   N   0.094512453618869   0.763412582927794   0.111201769823738   1.0000000
N2   N   0.238696402868765   0.907484379005351   0.111057487422188   1.0000000
N2   N   0.241571868547547   0.052459908682498   0.111326601445810   1.0000000
N2   N   0.249290538823064   0.201705140813270   0.111382369676568   1.0000000
N2   N   0.240707034336286   0.337903848360076   0.111029627910423   1.0000000
N2   N   0.235020310408790   0.478225638054607   0.111388696594701   1.0000000
N2   N   0.236134639763061   0.621013739747720   0.111531348723598   1.0000000
N2   N   0.237312178108181   0.763988293854627   0.110800231118040   1.0000000
N2   N   0.381271218292225   0.906396592770365   0.111253355438749   1.0000000
N2   N   0.382784014446198   0.050196048599135   0.110881936286298   1.0000000
N2   N   0.386706361229416   0.196751219864372   0.111792951826940   1.0000000
N2   N   0.400821616981223   0.360849106440594   0.112896876905998   1.0000000
N2   N   0.375971051548082   0.482517344057260   0.107680174074197   1.0000000
N2   N   0.378323433048234   0.622051478241070   0.110626718504946   1.0000000
N2   N   0.380126683549978   0.763779046973247   0.111657747233013   1.0000000
N2   N   0.524050001259790   0.903511135026325   0.110719974643582   1.0000000
N2   N   0.525340332525268   0.046120741447490   0.111135640467327   1.0000000
N2   N   0.527259101027872   0.188015543466135   0.112121958031062   1.0000000
N2   N   0.529429400988992   0.330146594552236   0.104266341229371   1.0000000
N2   N   0.516942609456745   0.612632220425477   0.110603549211344   1.0000000
N2   N   0.522427404990720   0.759925533131667   0.111335041459299   1.0000000
N2   N   0.666437933394060   0.901814000128217   0.110926710821473   1.0000000
N2   N   0.667988829847998   0.045246744979599   0.111056195786019   1.0000000
N2   N   0.669251798638176   0.187841795630529   0.110998753743001   1.0000000
N2   N   0.670340073564191   0.330132041447347   0.113516344705033   1.0000000
N2   N   0.663989447289855   0.471138668900236   0.111654789069335   1.0000000
N2   N   0.657065427159072   0.607733760961758   0.111015929587049   1.0000000
N2   N   0.662814138598119   0.755993026174629   0.110973479819702   1.0000000
N2   N   0.808751821016796   0.901798545711460   0.111009694504425   1.0000000
N2   N   0.810689368429595   0.045661196639664   0.111119347303885   1.0000000
N2   N   0.811417935532233   0.188706510406516   0.111042238201420   1.0000000
N2   N   0.811468264139411   0.331734340279170   0.110377193217292   1.0000000
N2   N   0.808767687996178   0.474657104241908   0.111060979257834   1.0000000
N2   N   0.806405976184367   0.616234348456230   0.111300974908571   1.0000000
N2   N   0.805635788105283   0.757222192515879   0.110819177706404   1.0000000


