data_1
_audit_creation_method   'vasp2cif'
_cell_length_a    14.93631414619966
_cell_length_b    14.936314146199727
_cell_length_c    13.341276283792837
_cell_angle_alpha    90.0
_cell_angle_beta    90.0
_cell_angle_gamma    119.99999999999984

_symmetry_space_group_name_H-M    'P 1'
loop_
_atom_site_label
_atom_site_type_symbol
_atom_site_fract_x
_atom_site_fract_y
_atom_site_fract_z
_atom_site_occupancy
C2   C   0.389757739516418   0.441567744395944   0.375000000000000   1.0000000
C2   C   0.444203832386974   0.388407664773947   0.375000000000000   1.0000000
C2   C   0.551810004879534   0.441567744395944   0.375000000000000   1.0000000
N2   N   0.111094741045651   0.055547561250013   0.125061605420515   1.0000000
N2   N   0.611133463213846   0.555595359104685   0.124566819448132   1.0000000
N2   N   0.444452820204362   0.055547561250013   0.125061605420515   1.0000000
N2   N   0.944421958119480   0.555511617965181   0.125077515532740   1.0000000
N2   N   0.777773812004505   0.055547624009009   0.125019252051948   1.0000000
N2   N   0.111098191891575   0.722196383783143   0.624960262054741   1.0000000
N2   N   0.444466531650706   0.722232838143205   0.624979246581155   1.0000000
N2   N   0.277759248903055   0.222209277289471   0.625132558209226   1.0000000
N2   N   0.777766306492506   0.722232838143205   0.624979246581155   1.0000000
N2   N   0.611125131613170   0.222189450296140   0.625028681137165   1.0000000
N2   N   0.944414002596542   0.222188984324218   0.624980335365649   1.0000000
N2   N   0.277780766833958   0.722203230116755   0.125048772928042   1.0000000
N2   N   0.111064318682970   0.222189450296140   0.124971318862835   1.0000000
N2   N   0.444450028386415   0.222209277289471   0.124867441790774   1.0000000
N2   N   0.611122004674944   0.722244009349881   0.124975977756349   1.0000000
N2   N   0.944422463282804   0.722203230116755   0.125048772928042   1.0000000
N2   N   0.777774981727675   0.222188984324218   0.125019664634351   1.0000000
N2   N   0.111097756323326   0.888879724265414   0.624950849066535   1.0000000
N2   N   0.444458560768679   0.888890950811936   0.624950505842772   1.0000000
N2   N   0.277694052642494   0.388823200482682   0.625650623815456   1.0000000
N2   N   0.611129147840196   0.388823200482682   0.625650623815456   1.0000000
N2   N   0.777778855889370   0.888899882020257   0.624969220145909   1.0000000
N2   N   0.944427545851908   0.388855091703816   0.624931550780986   1.0000000
N2   N   0.111072594368756   0.388846237305248   0.125015856840959   1.0000000
N2   N   0.277781967942095   0.888879724265414   0.125049150933465   1.0000000
N2   N   0.611121026130894   0.888899882020257   0.125030779854091   1.0000000
N2   N   0.444414505368726   0.388829010737453   0.123971592360140   1.0000000
N2   N   0.944432390043257   0.888890950811936   0.125049494157228   1.0000000
N2   N   0.777773642936499   0.388846237305248   0.125015856840959   1.0000000
N2   N   0.277762967031096   0.555524253154102   0.624953927472439   1.0000000
N2   N   0.111094741045651   0.055547561250013   0.624938394579486   1.0000000
N2   N   0.611133463213846   0.555595359104685   0.625433180551868   1.0000000
N2   N   0.444452820204362   0.055547561250013   0.624938394579486   1.0000000
N2   N   0.944421958119480   0.555511617965181   0.624922484467260   1.0000000
N2   N   0.111089659845701   0.555511617965181   0.125077515532740   1.0000000
N2   N   0.777773812004505   0.055547624009009   0.624980747948052   1.0000000
N2   N   0.277777452997826   0.055554905995646   0.125045510651397   1.0000000
N2   N   0.444461895890838   0.555595359104685   0.124566819448132   1.0000000
N2   N   0.777761286123005   0.555524253154102   0.125046072527554   1.0000000
N2   N   0.611117843653725   0.055543499858655   0.125040826548178   1.0000000
N2   N   0.444461895890838   0.555595359104685   0.625433180551868   1.0000000
N2   N   0.944425656204930   0.055543499858655   0.125040826548178   1.0000000
N2   N   0.277780766833958   0.722203230116755   0.624951227071958   1.0000000
N2   N   0.111064318682970   0.222189450296140   0.625028681137165   1.0000000
N2   N   0.444450028386415   0.222209277289471   0.625132558209226   1.0000000
N2   N   0.611122004674944   0.722244009349881   0.625024022243652   1.0000000
N2   N   0.944422463282804   0.722203230116755   0.624951227071958   1.0000000
N2   N   0.777774981727675   0.222188984324218   0.624980335365649   1.0000000
N2   N   0.111098191891575   0.722196383783143   0.125039737945259   1.0000000
N2   N   0.444466531650706   0.722232838143205   0.125020753418845   1.0000000
N2   N   0.277759248903055   0.222209277289471   0.124867441790774   1.0000000
N2   N   0.777766306492506   0.722232838143205   0.125020753418845   1.0000000
N2   N   0.611125131613170   0.222189450296140   0.124971318862835   1.0000000
N2   N   0.944414002596542   0.222188984324218   0.125019664634351   1.0000000
N2   N   0.111072594368756   0.388846237305248   0.624984143159041   1.0000000
N2   N   0.277781967942095   0.888879724265414   0.624950849066535   1.0000000
N2   N   0.611121026130894   0.888899882020257   0.624969220145909   1.0000000
N2   N   0.444414505368726   0.388829010737453   0.626028407639860   1.0000000
N2   N   0.944432390043257   0.888890950811936   0.624950505842772   1.0000000
N2   N   0.111097756323326   0.888879724265414   0.125049150933465   1.0000000
N2   N   0.777773642936499   0.388846237305248   0.624984143159041   1.0000000
N2   N   0.444458560768679   0.888890950811936   0.125049494157228   1.0000000
N2   N   0.277694052642494   0.388823200482682   0.124349376184544   1.0000000
N2   N   0.277762967031096   0.555524253154102   0.125046072527554   1.0000000
N2   N   0.611129147840196   0.388823200482682   0.124349376184544   1.0000000
N2   N   0.777778855889370   0.888899882020257   0.125030779854091   1.0000000
N2   N   0.944427545851908   0.388855091703816   0.125068449219014   1.0000000
N2   N   0.111089659845701   0.555511617965181   0.624922484467260   1.0000000
N2   N   0.277777452997826   0.055554905995646   0.624954489348596   1.0000000
N2   N   0.777761286123005   0.555524253154102   0.624953927472439   1.0000000
N2   N   0.611117843653725   0.055543499858655   0.624959173451822   1.0000000
N2   N   0.944425656204930   0.055543499858655   0.624959173451822   1.0000000
N2   N   0.054802313806778   0.110184363259282   0.375000000000000   1.0000000
N2   N   0.557557539070841   0.615115078141682   0.375000000000000   1.0000000
N2   N   0.388741972721626   0.111325610161899   0.375000000000000   1.0000000
N2   N   0.889189155346522   0.611288620320961   0.375000000000000   1.0000000
N2   N   0.722230154596206   0.111012383741848   0.375000000000000   1.0000000
N2   N   0.055561212485159   0.777781690203038   0.875000000000000   1.0000000
N2   N   0.388885856670047   0.777786478119087   0.875000000000000   1.0000000
N2   N   0.222228157860893   0.277778199278021   0.875000000000000   1.0000000
N2   N   0.722229344457206   0.777784851641122   0.875000000000000   1.0000000
N2   N   0.555550041417136   0.277778199278021   0.875000000000000   1.0000000
N2   N   0.888892777686919   0.277785555373845   0.875000000000000   1.0000000
N2   N   0.222143146135050   0.777896187078612   0.375000000000000   1.0000000
N2   N   0.054800443348579   0.277358968372336   0.375000000000000   1.0000000
N2   N   0.389603617054378   0.279207234108762   0.375000000000000   1.0000000
N2   N   0.555785012404404   0.779139689492287   0.375000000000000   1.0000000
N2   N   0.889639313833863   0.778332408156945   0.375000000000000   1.0000000
N2   N   0.722558525023757   0.277358968372336   0.375000000000000   1.0000000
N2   N   0.055555057103472   0.944444816381484   0.875000000000000   1.0000000
N2   N   0.388889759278012   0.944444816381484   0.875000000000000   1.0000000
N2   N   0.222219246874663   0.444457893643392   0.875000000000000   1.0000000
N2   N   0.555566558148503   0.444463794469146   0.875000000000000   1.0000000
N2   N   0.722224229912754   0.944448459825509   0.875000000000000   1.0000000
N2   N   0.888898134291462   0.444451006758793   0.875000000000000   1.0000000
N2   N   0.055289731541330   0.444511257566287   0.375000000000000   1.0000000
N2   N   0.222242912853791   0.944485825707589   0.375000000000000   1.0000000
N2   N   0.555458064218798   0.944592465557520   0.375000000000000   1.0000000
N2   N   0.889134401338722   0.944592465557520   0.375000000000000   1.0000000
N2   N   0.723080913489128   0.444063944183452   0.375000000000000   1.0000000
N2   N   0.222215030730118   0.611116942515535   0.875000000000000   1.0000000
N2   N   0.055553857304372   0.111105967309429   0.875000000000000   1.0000000
N2   N   0.555566830877407   0.611133661754814   0.875000000000000   1.0000000
N2   N   0.388885761980292   0.111104366828623   0.875000000000000   1.0000000
N2   N   0.888901911785410   0.611116942515535   0.875000000000000   1.0000000
N2   N   0.055654648047091   0.611309296094174   0.375000000000000   1.0000000
N2   N   0.722221938065770   0.111115425066012   0.875000000000000   1.0000000
N2   N   0.222583637440265   0.111325610161899   0.375000000000000   1.0000000
N2   N   0.388996107155805   0.612338754476359   0.375000000000000   1.0000000
N2   N   0.723342647320554   0.612338754476359   0.375000000000000   1.0000000
N2   N   0.555382049452503   0.110184363259282   0.375000000000000   1.0000000
N2   N   0.388886210080016   0.611126500206224   0.875000000000000   1.0000000
N2   N   0.888782229145635   0.111012383741848   0.375000000000000   1.0000000
N2   N   0.222220477717880   0.777781690203038   0.875000000000000   1.0000000
N2   N   0.055565343523453   0.277784691152883   0.875000000000000   1.0000000
N2   N   0.388886364364240   0.277772728728493   0.875000000000000   1.0000000
N2   N   0.555555507183916   0.777784851641122   0.875000000000000   1.0000000
N2   N   0.888900621449026   0.777786478119087   0.875000000000000   1.0000000
N2   N   0.722219347629430   0.277784691152883   0.875000000000000   1.0000000
N2   N   0.055753040943563   0.777896187078612   0.375000000000000   1.0000000
N2   N   0.388693094323076   0.778332408156945   0.375000000000000   1.0000000
N2   N   0.219498599848326   0.275341645139316   0.375000000000000   1.0000000
N2   N   0.723354677087883   0.779139689492287   0.375000000000000   1.0000000
N2   N   0.555843045290990   0.275341645139316   0.375000000000000   1.0000000
N2   N   0.888859152092841   0.277718304185690   0.375000000000000   1.0000000
N2   N   0.055552872467332   0.444451006758793   0.875000000000000   1.0000000
N2   N   0.222219754579230   0.944439509158468   0.875000000000000   1.0000000
N2   N   0.555554965062491   0.944447979862136   0.875000000000000   1.0000000
N2   N   0.388897236320636   0.444463794469146   0.875000000000000   1.0000000
N2   N   0.888893014799651   0.944447979862136   0.875000000000000   1.0000000
N2   N   0.055898479769090   0.944582260733468   0.375000000000000   1.0000000
N2   N   0.722238646768729   0.444457893643392   0.875000000000000   1.0000000
N2   N   0.388683780964378   0.944582260733468   0.375000000000000   1.0000000
N2   N   0.220983030694324   0.444063944183452   0.375000000000000   1.0000000
N2   N   0.222099464974431   0.611288620320961   0.375000000000000   1.0000000
N2   N   0.722455598537566   0.944911197075132   0.375000000000000   1.0000000
N2   N   0.889221526024957   0.444511257566287   0.375000000000000   1.0000000
N2   N   0.055556771525195   0.611113543050398   0.875000000000000   1.0000000
N2   N   0.222218604848324   0.111104366828623   0.875000000000000   1.0000000
N2   N   0.722240290126201   0.611126500206224   0.875000000000000   1.0000000
N2   N   0.555552110005057   0.111105967309429   0.875000000000000   1.0000000
N2   N   0.888893487000228   0.111115425066012   0.875000000000000   1.0000000
B2   B   0.111440971268245   0.055883748467907   0.375000000000000   1.0000000
B2   B   0.610104310498617   0.556719458174027   0.375000000000000   1.0000000
B2   B   0.444442777199662   0.055883748467907   0.375000000000000   1.0000000
B2   B   0.944699297377554   0.556077863035592   0.375000000000000   1.0000000
B2   B   0.777796114990357   0.055592229980713   0.375000000000000   1.0000000
B2   B   0.111106006198611   0.722212012397215   0.875000000000000   1.0000000
B2   B   0.444440254245372   0.722209763384830   0.875000000000000   1.0000000
B2   B   0.277825368649320   0.222258668823278   0.875000000000000   1.0000000
B2   B   0.777769509139457   0.722209763384830   0.875000000000000   1.0000000
B2   B   0.611086161835579   0.222229983516688   0.875000000000000   1.0000000
B2   B   0.944456981647608   0.222240437721439   0.875000000000000   1.0000000
B2   B   0.277837865149057   0.722326742437257   0.375000000000000   1.0000000
B2   B   0.109877819681271   0.220978398551588   0.375000000000000   1.0000000
B2   B   0.445340489728320   0.223232755436007   0.375000000000000   1.0000000
B2   B   0.611983360820943   0.723966721641887   0.375000000000000   1.0000000
B2   B   0.944488877288206   0.722326742437257   0.375000000000000   1.0000000
B2   B   0.777944279057956   0.222233820290915   0.375000000000000   1.0000000
B2   B   0.111123085898863   0.888897846034205   0.875000000000000   1.0000000
B2   B   0.444437333873932   0.888874963394680   0.875000000000000   1.0000000
B2   B   0.277790586064665   0.388908085176752   0.875000000000000   1.0000000
B2   B   0.611117499112094   0.388908085176752   0.875000000000000   1.0000000
B2   B   0.777763607447807   0.888870743994318   0.875000000000000   1.0000000
B2   B   0.944449533357220   0.388899066714446   0.875000000000000   1.0000000
B2   B   0.111078083195179   0.388826006351514   0.375000000000000   1.0000000
B2   B   0.277596224195063   0.889003524238488   0.375000000000000   1.0000000
B2   B   0.611413054550916   0.889599022760529   0.375000000000000   1.0000000
B2   B   0.944809148240417   0.888940107278691   0.375000000000000   1.0000000
B2   B   0.777747923156343   0.388826006351514   0.375000000000000   1.0000000
B2   B   0.277792199519279   0.555547346839410   0.875000000000000   1.0000000
B2   B   0.111122471513903   0.055573683647799   0.875000000000000   1.0000000
B2   B   0.611109315103262   0.555587625765793   0.875000000000000   1.0000000
B2   B   0.444451212133895   0.055573683647799   0.875000000000000   1.0000000
B2   B   0.944444527411344   0.555554605337738   0.875000000000000   1.0000000
B2   B   0.111378565658037   0.556077863035592   0.375000000000000   1.0000000
B2   B   0.777771776726021   0.055543553452035   0.875000000000000   1.0000000
B2   B   0.277815901869537   0.055631803739074   0.375000000000000   1.0000000
B2   B   0.446615147675410   0.556719458174027   0.375000000000000   1.0000000
B2   B   0.777048459415391   0.555269535940947   0.375000000000000   1.0000000
B2   B   0.611066251314402   0.055471921528550   0.375000000000000   1.0000000
B2   B   0.444478310662531   0.555587625765793   0.875000000000000   1.0000000
B2   B   0.944405670214148   0.055471921528550   0.375000000000000   1.0000000
B2   B   0.277791347386917   0.722221579586707   0.875000000000000   1.0000000
B2   B   0.111143821681116   0.222229983516688   0.875000000000000   1.0000000
B2   B   0.444433300173958   0.222258668823278   0.875000000000000   1.0000000
B2   B   0.611092792990787   0.722185585981560   0.875000000000000   1.0000000
B2   B   0.944430232199797   0.722221579586707   0.875000000000000   1.0000000
B2   B   0.777783456073838   0.222240437721439   0.875000000000000   1.0000000
B2   B   0.111105131761246   0.722210263522484   0.375000000000000   1.0000000
B2   B   0.444058036591677   0.722503948839497   0.375000000000000   1.0000000
B2   B   0.277892265707687   0.223232755436007   0.375000000000000   1.0000000
B2   B   0.778445912247820   0.722503948839497   0.375000000000000   1.0000000
B2   B   0.611100578870323   0.220978398551588   0.375000000000000   1.0000000
B2   B   0.944289541232959   0.222233820290915   0.375000000000000   1.0000000
B2   B   0.111150698767127   0.388916738032038   0.875000000000000   1.0000000
B2   B   0.277774760135356   0.888897846034205   0.875000000000000   1.0000000
B2   B   0.611107136546519   0.888870743994318   0.875000000000000   1.0000000
B2   B   0.444440006670718   0.388880013341442   0.875000000000000   1.0000000
B2   B   0.944437629520748   0.888874963394680   0.875000000000000   1.0000000
B2   B   0.111407300043425   0.889003524238488   0.375000000000000   1.0000000
B2   B   0.777766039264918   0.388916738032038   0.875000000000000   1.0000000
B2   B   0.444130959038274   0.888940107278691   0.375000000000000   1.0000000
B2   B   0.275996121206656   0.386926476122944   0.375000000000000   1.0000000
B2   B   0.278221076525557   0.555269535940947   0.375000000000000   1.0000000
B2   B   0.610930354916296   0.386926476122944   0.375000000000000   1.0000000
B2   B   0.778185968209628   0.889599022760529   0.375000000000000   1.0000000
B2   B   0.944291958253512   0.388583916507030   0.375000000000000   1.0000000
B2   B   0.111110077926394   0.555554605337738   0.875000000000000   1.0000000
B2   B   0.277782973378895   0.055565946757790   0.875000000000000   1.0000000
B2   B   0.777755147320131   0.555547346839410   0.875000000000000   1.0000000
B2   B   0.611093165662317   0.055559472906931   0.875000000000000   1.0000000
B2   B   0.944466307244606   0.055559472906931   0.875000000000000   1.0000000
B2   B   0.055592080162661   0.111171136531977   0.124994816992374   1.0000000
B2   B   0.555479867239545   0.610959734479090   0.125098074534050   1.0000000
B2   B   0.388958932884873   0.111259580279151   0.124961974277379   1.0000000
B2   B   0.888734745824174   0.611023221484840   0.125018035517280   1.0000000
B2   B   0.722217785616321   0.111106437086007   0.124932172427134   1.0000000
B2   B   0.055505332180302   0.777748197066346   0.625067801625075   1.0000000
B2   B   0.388936818429273   0.777721688143381   0.624992113406053   1.0000000
B2   B   0.222329323103047   0.277905508012494   0.625089192746072   1.0000000
B2   B   0.722136057492735   0.777690498635251   0.625024935911144   1.0000000
B2   B   0.555576184909455   0.277905508012494   0.625089192746072   1.0000000
B2   B   0.888867912665682   0.277735825331379   0.625035229802382   1.0000000
B2   B   0.222242864886052   0.777748197066346   0.124932198374925   1.0000000
B2   B   0.055596357943186   0.277766048791439   0.124970209883147   1.0000000
B2   B   0.389007801504508   0.278015603009024   0.124807962934070   1.0000000
B2   B   0.555554441142516   0.777690498635251   0.124975064088856   1.0000000
B2   B   0.888784869714101   0.777721688143381   0.125007886593947   1.0000000
B2   B   0.722169690848246   0.277766048791439   0.124970209883147   1.0000000
B2   B   0.055552959155762   0.944481991410654   0.625051032220734   1.0000000
B2   B   0.388929032254899   0.944481991410654   0.625051032220734   1.0000000
B2   B   0.222331414625486   0.444336145369742   0.624980343965688   1.0000000
B2   B   0.555391800826572   0.444319814721636   0.624358590402299   1.0000000
B2   B   0.722209235160554   0.944418470321101   0.625040628544912   1.0000000
B2   B   0.888793844089196   0.444368108539511   0.625068753957224   1.0000000
B2   B   0.055574264450315   0.444368108539511   0.124931246042776   1.0000000
B2   B   0.222252453495291   0.944504906990589   0.124975222671798   1.0000000
B2   B   0.555573797502572   0.944435363515175   0.124926290668325   1.0000000
B2   B   0.388928013895064   0.444319814721636   0.125641409597701   1.0000000
B2   B   0.888861566012603   0.944435363515175   0.124926290668325   1.0000000
B2   B   0.722004730744256   0.444336145369742   0.125019656034313   1.0000000
B2   B   0.222288475660659   0.611023221484840   0.624981964482720   1.0000000
B2   B   0.055592080162661   0.111171136531977   0.625005183007626   1.0000000
B2   B   0.555479867239545   0.610959734479090   0.624901925465950   1.0000000
B2   B   0.388958932884873   0.111259580279151   0.625038025722621   1.0000000
B2   B   0.888734745824174   0.611023221484840   0.624981964482720   1.0000000
B2   B   0.055525309444529   0.611050618889059   0.124973196238472   1.0000000
B2   B   0.722217785616321   0.111106437086007   0.625067827572866   1.0000000
B2   B   0.222300647394271   0.111259580279151   0.124961974277379   1.0000000
B2   B   0.388968712998281   0.610978418877041   0.125092987664246   1.0000000
B2   B   0.722009705878753   0.610978418877041   0.125092987664246   1.0000000
B2   B   0.555579056369323   0.111171136531977   0.124994816992374   1.0000000
B2   B   0.388968712998281   0.610978418877041   0.624907012335755   1.0000000
B2   B   0.888888651469686   0.111106437086007   0.124932172427134   1.0000000
B2   B   0.222242864886052   0.777748197066346   0.625067801625075   1.0000000
B2   B   0.055596357943186   0.277766048791439   0.625029790116853   1.0000000
B2   B   0.389007801504508   0.278015603009024   0.625192037065930   1.0000000
B2   B   0.555554441142516   0.777690498635251   0.625024935911144   1.0000000
B2   B   0.888784869714101   0.777721688143381   0.624992113406053   1.0000000
B2   B   0.722169690848246   0.277766048791439   0.625029790116853   1.0000000
B2   B   0.055505332180302   0.777748197066346   0.124932198374925   1.0000000
B2   B   0.388936818429273   0.777721688143381   0.125007886593947   1.0000000
B2   B   0.222329323103047   0.277905508012494   0.124910807253928   1.0000000
B2   B   0.722136057492735   0.777690498635251   0.124975064088856   1.0000000
B2   B   0.555576184909455   0.277905508012494   0.124910807253928   1.0000000
B2   B   0.888867912665682   0.277735825331379   0.124964770197618   1.0000000
B2   B   0.055574264450315   0.444368108539511   0.625068753957224   1.0000000
B2   B   0.222252453495291   0.944504906990589   0.625024777328202   1.0000000
B2   B   0.555573797502572   0.944435363515175   0.625073709331676   1.0000000
B2   B   0.388928013895064   0.444319814721636   0.624358590402299   1.0000000
B2   B   0.888861566012603   0.944435363515175   0.625073709331676   1.0000000
B2   B   0.055552959155762   0.944481991410654   0.124948967779266   1.0000000
B2   B   0.722004730744256   0.444336145369742   0.624980343965688   1.0000000
B2   B   0.388929032254899   0.944481991410654   0.124948967779266   1.0000000
B2   B   0.222331414625486   0.444336145369742   0.125019656034313   1.0000000
B2   B   0.222288475660659   0.611023221484840   0.125018035517280   1.0000000
B2   B   0.555391800826572   0.444319814721636   0.125641409597701   1.0000000
B2   B   0.722209235160554   0.944418470321101   0.124959371455087   1.0000000
B2   B   0.888793844089196   0.444368108539511   0.124931246042776   1.0000000
B2   B   0.055525309444529   0.611050618889059   0.625026803761528   1.0000000
B2   B   0.222300647394271   0.111259580279151   0.625038025722621   1.0000000
B2   B   0.722009705878753   0.610978418877041   0.624907012335755   1.0000000
B2   B   0.555579056369323   0.111171136531977   0.625005183007626   1.0000000
B2   B   0.888888651469685   0.111106437086007   0.625067827572866   1.0000000


