data_1
_audit_creation_method   'vasp2cif'
_cell_length_a    14.93631414619966
_cell_length_b    14.936314146199727
_cell_length_c    13.341276283792837
_cell_angle_alpha    90.0
_cell_angle_beta    90.0
_cell_angle_gamma    119.99999999999984

_symmetry_space_group_name_H-M    'P 1'
loop_
_atom_site_label
_atom_site_type_symbol
_atom_site_fract_x
_atom_site_fract_y
_atom_site_fract_z
_atom_site_occupancy
C2   C   0.441105869637560   0.387219601485444   0.375000000000000   1.0000000
O2   O   0.553574265307584   0.443453799320456   0.375000000000000   1.0000000
N2   N   0.111112157787458   0.055546719111608   0.125146359210008   1.0000000
N2   N   0.611080876501235   0.555519688873127   0.126103332826567   1.0000000
N2   N   0.444431667539446   0.055540640784034   0.125152260678910   1.0000000
N2   N   0.944458000430525   0.555567361480007   0.125128013219632   1.0000000
N2   N   0.777764516869776   0.055548925101555   0.125110196750890   1.0000000
N2   N   0.111117991221112   0.722225662277220   0.624893406405228   1.0000000
N2   N   0.444431667539446   0.722224360088749   0.624847739321091   1.0000000
N2   N   0.277774982846833   0.222222750625367   0.624725885984876   1.0000000
N2   N   0.777773823053083   0.722205984390058   0.624749686427412   1.0000000
N2   N   0.611095960577432   0.222211784266782   0.624765972151502   1.0000000
N2   N   0.944438120087222   0.222226893668655   0.624886505227201   1.0000000
N2   N   0.277773659988031   0.722225103717576   0.125111818673134   1.0000000
N2   N   0.111101185005809   0.222217259169569   0.125126976577582   1.0000000
N2   N   0.444448731669015   0.222217788149669   0.125336543922509   1.0000000
N2   N   0.611095960577432   0.722217509643980   0.125234027848498   1.0000000
N2   N   0.944458000430525   0.722223972283856   0.125128013219632   1.0000000
N2   N   0.777768505957889   0.222227210084063   0.125124846875394   1.0000000
N2   N   0.111115520058648   0.888883266196970   0.624887324312330   1.0000000
N2   N   0.444430257442616   0.888881795387974   0.624878454782785   1.0000000
N2   N   0.277774982846833   0.388885565554793   0.624725885984876   1.0000000
N2   N   0.611080876501235   0.388894520961436   0.623896667173433   1.0000000
N2   N   0.777768505957889   0.888874629207156   0.624875153124607   1.0000000
N2   N   0.944448707219573   0.388903422348916   0.624887438481477   1.0000000
N2   N   0.111112157787458   0.388898772009179   0.125146359210008   1.0000000
N2   N   0.277773659988031   0.888881889603784   0.125111818673134   1.0000000
N2   N   0.611092833204852   0.888883370584191   0.125108691837280   1.0000000
N2   N   0.444444862582560   0.388889097957945   0.125310200534616   1.0000000
N2   N   0.944448707219573   0.888878618203984   0.125112561518525   1.0000000
N2   N   0.777773823053083   0.388901171996351   0.125250313572589   1.0000000
N2   N   0.277774843191664   0.555562726116329   0.624850259168989   1.0000000
N2   N   0.111112157787458   0.055546719111608   0.624853640789993   1.0000000
N2   N   0.611080876501235   0.555519688873127   0.623896667173433   1.0000000
N2   N   0.444431667539446   0.055540640784034   0.624847739321091   1.0000000
N2   N   0.944458000430525   0.555567361480007   0.624871986780368   1.0000000
N2   N   0.111115520058648   0.555565587195009   0.125112675687671   1.0000000
N2   N   0.777764516869776   0.055548925101555   0.624889803249110   1.0000000
N2   N   0.277774843191664   0.055545450408671   0.125149740831012   1.0000000
N2   N   0.444448731669015   0.555564276852684   0.125336543922509   1.0000000
N2   N   0.777779657789640   0.555556495561490   0.125395161331918   1.0000000
N2   N   0.611092833204852   0.055542795953989   0.125108691837280   1.0000000
N2   N   0.444448731669015   0.555564276852684   0.624663456077491   1.0000000
N2   N   0.944438120087222   0.055544559751903   0.125113494772798   1.0000000
N2   N   0.277773659988031   0.722225103717576   0.624888181326867   1.0000000
N2   N   0.111101185005809   0.222217259169569   0.624873023422418   1.0000000
N2   N   0.444448731669015   0.222217788149669   0.624663456077491   1.0000000
N2   N   0.611095960577432   0.722217509643980   0.624765972151502   1.0000000
N2   N   0.944458000430525   0.722223972283856   0.624871986780368   1.0000000
N2   N   0.777768505957889   0.222227210084063   0.624875153124607   1.0000000
N2   N   0.111117991221112   0.722225662277220   0.125106593594770   1.0000000
N2   N   0.444431667539446   0.722224360088749   0.125152260678910   1.0000000
N2   N   0.277774982846833   0.222222750625367   0.125274114015124   1.0000000
N2   N   0.777773823053083   0.722205984390058   0.125250313572589   1.0000000
N2   N   0.611095960577432   0.222211784266782   0.125234027848498   1.0000000
N2   N   0.944438120087222   0.222226893668655   0.125113494772798   1.0000000
N2   N   0.111112157787458   0.388898772009179   0.624853640789993   1.0000000
N2   N   0.277773659988031   0.888881889603784   0.624888181326867   1.0000000
N2   N   0.611092833204852   0.888883370584191   0.624891308162721   1.0000000
N2   N   0.444444862582560   0.388889097957945   0.624689799465385   1.0000000
N2   N   0.944448707219573   0.888878618203984   0.624887438481477   1.0000000
N2   N   0.111115520058648   0.888883266196970   0.125112675687671   1.0000000
N2   N   0.777773823053083   0.388901171996351   0.624749686427412   1.0000000
N2   N   0.444430257442616   0.888881795387974   0.125121545217215   1.0000000
N2   N   0.277774982846833   0.388885565554793   0.125274114015124   1.0000000
N2   N   0.277774843191664   0.555562726116329   0.125149740831012   1.0000000
N2   N   0.611080876501235   0.388894520961436   0.126103332826567   1.0000000
N2   N   0.777768505957889   0.888874629207156   0.125124846875394   1.0000000
N2   N   0.944448707219573   0.388903422348916   0.125112561518525   1.0000000
N2   N   0.111115520058648   0.555565587195009   0.624887324312330   1.0000000
N2   N   0.277774843191664   0.055545450408671   0.624850259168989   1.0000000
N2   N   0.777779657789640   0.555556495561490   0.624604838668082   1.0000000
N2   N   0.611092833204852   0.055542795953989   0.624891308162721   1.0000000
N2   N   0.944438120087222   0.055544559751903   0.624886505227201   1.0000000
N2   N   0.055840960856341   0.111317270759112   0.375000000000000   1.0000000
N2   N   0.555310899579370   0.610141795110050   0.375000000000000   1.0000000
N2   N   0.388974430965949   0.112136016227155   0.375000000000000   1.0000000
N2   N   0.888284910400971   0.610809121867157   0.375000000000000   1.0000000
N2   N   0.722188208537497   0.111166787347313   0.375000000000000   1.0000000
N2   N   0.055549394466220   0.777777138249166   0.875000000000000   1.0000000
N2   N   0.388892076440612   0.777778015967464   0.875000000000000   1.0000000
N2   N   0.222216354241000   0.277774843787167   0.875000000000000   1.0000000
N2   N   0.722222178860742   0.777779126604905   0.875000000000000   1.0000000
N2   N   0.555557338078927   0.277782875511677   0.875000000000000   1.0000000
N2   N   0.888888949855676   0.277776179961359   0.875000000000000   1.0000000
N2   N   0.222194349528511   0.777763841430924   0.375000000000000   1.0000000
N2   N   0.055840960856341   0.277857023430566   0.375000000000000   1.0000000
N2   N   0.390981608285632   0.280727308072565   0.375000000000000   1.0000000
N2   N   0.555519309752176   0.777387465388549   0.375000000000000   1.0000000
N2   N   0.888379638880509   0.777408685783097   0.375000000000000   1.0000000
N2   N   0.721994360512848   0.277889878474074   0.375000000000000   1.0000000
N2   N   0.055550259541502   0.944444560831464   0.875000000000000   1.0000000
N2   N   0.388892076440612   0.944447393806485   0.875000000000000   1.0000000
N2   N   0.222217146497257   0.444438684547998   0.875000000000000   1.0000000
N2   N   0.555556405898024   0.444444869615676   0.875000000000000   1.0000000
N2   N   0.722221972892382   0.944445126699103   0.875000000000000   1.0000000
N2   N   0.888885980783208   0.444439491891335   0.875000000000000   1.0000000
N2   N   0.055766718234100   0.444331892515878   0.375000000000000   1.0000000
N2   N   0.222303317550663   0.944709887900115   0.375000000000000   1.0000000
N2   N   0.555544854119038   0.944439093726183   0.375000000000000   1.0000000
N2   N   0.390981608285632   0.443587633546404   0.375000000000000   1.0000000
N2   N   0.888892347701338   0.944428848804278   0.375000000000000   1.0000000
N2   N   0.720740930761519   0.444472680702032   0.375000000000000   1.0000000
N2   N   0.222219112128592   0.611105989190430   0.875000000000000   1.0000000
N2   N   0.055550083233584   0.111108548566873   0.875000000000000   1.0000000
N2   N   0.555557338078927   0.611107795900586   0.875000000000000   1.0000000
N2   N   0.388890495010821   0.111116465061721   0.875000000000000   1.0000000
N2   N   0.888882780077321   0.611108056705333   0.875000000000000   1.0000000
N2   N   0.055335418779628   0.610941019402751   0.375000000000000   1.0000000
N2   N   0.722221972892382   0.111110179526614   0.875000000000000   1.0000000
N2   N   0.223312216573058   0.112219961918777   0.375000000000000   1.0000000
N2   N   0.388974430965949   0.610171748072138   0.375000000000000   1.0000000
N2   N   0.720740930761519   0.609601583392825   0.375000000000000   1.0000000
N2   N   0.555519309752176   0.111465177696964   0.375000000000000   1.0000000
N2   N   0.388890495010821   0.611107363282444   0.875000000000000   1.0000000
N2   N   0.888981901856352   0.111157617594847   0.375000000000000   1.0000000
N2   N   0.222220019673149   0.777776676503243   0.875000000000000   1.0000000
N2   N   0.055550083233584   0.277774868000047   0.875000000000000   1.0000000
N2   N   0.388888282002316   0.277779978690963   0.875000000000000   1.0000000
N2   N   0.555557036846763   0.777778203678525   0.875000000000000   1.0000000
N2   N   0.888885980783208   0.777779822225208   0.875000000000000   1.0000000
N2   N   0.722222178860742   0.277776385589173   0.875000000000000   1.0000000
N2   N   0.055335418779628   0.777727732710212   0.375000000000000   1.0000000
N2   N   0.388957509269092   0.777507153569202   0.375000000000000   1.0000000
N2   N   0.222727397017636   0.278030365175485   0.375000000000000   1.0000000
N2   N   0.721994360512848   0.777437815372111   0.375000000000000   1.0000000
N2   N   0.555310899579370   0.278502437802657   0.375000000000000   1.0000000
N2   N   0.888892347701338   0.277796832230395   0.375000000000000   1.0000000
N2   N   0.055550259541502   0.444439032043365   0.875000000000000   1.0000000
N2   N   0.222219112128592   0.944446456271498   0.875000000000000   1.0000000
N2   N   0.555556131931509   0.944444732632419   0.875000000000000   1.0000000
N2   N   0.388888282002316   0.444441636644689   0.875000000000000   1.0000000
N2   N   0.888888949855676   0.944446103227654   0.875000000000000   1.0000000
N2   N   0.055766718234100   0.944768159051550   0.375000000000000   1.0000000
N2   N   0.722216639262241   0.444441245535759   0.875000000000000   1.0000000
N2   N   0.388957509269092   0.944783689033226   0.375000000000000   1.0000000
N2   N   0.223312216573058   0.444425587987615   0.375000000000000   1.0000000
N2   N   0.222303317550663   0.610926762983885   0.375000000000000   1.0000000
N2   N   0.722188208537497   0.944354754523518   0.375000000000000   1.0000000
N2   N   0.888379638880509   0.444304286430747   0.375000000000000   1.0000000
N2   N   0.055549394466220   0.611105589550392   0.875000000000000   1.0000000
N2   N   0.222217146497257   0.111111795282595   0.875000000000000   1.0000000
N2   N   0.722216639262241   0.611108727059816   0.875000000000000   1.0000000
N2   N   0.555557036846763   0.111112166501574   0.875000000000000   1.0000000
N2   N   0.888888086362527   0.111110709847934   0.875000000000000   1.0000000
B2   B   0.111485512137143   0.056008418852081   0.375000000000000   1.0000000
B2   B   0.612080238474713   0.558769631056503   0.375000000000000   1.0000000
B2   B   0.444360298092862   0.055796493432920   0.375000000000000   1.0000000
B2   B   0.944468057453183   0.555439072290902   0.375000000000000   1.0000000
B2   B   0.777884966810496   0.055609150071916   0.375000000000000   1.0000000
B2   B   0.111117012171666   0.722225172752496   0.875000000000000   1.0000000
B2   B   0.444440283946601   0.722240543845888   0.875000000000000   1.0000000
B2   B   0.277730258698196   0.222193220347733   0.875000000000000   1.0000000
B2   B   0.777807464636218   0.722270709334456   0.875000000000000   1.0000000
B2   B   0.611123213636080   0.222190552147326   0.875000000000000   1.0000000
B2   B   0.944439304271510   0.222210686627369   0.875000000000000   1.0000000
B2   B   0.277744929499830   0.722144195800217   0.375000000000000   1.0000000
B2   B   0.111049766859354   0.222191550096342   0.375000000000000   1.0000000
B2   B   0.444110424736357   0.222475057296645   0.375000000000000   1.0000000
B2   B   0.611384300438474   0.722828399254325   0.375000000000000   1.0000000
B2   B   0.944468057453183   0.722362318495615   0.375000000000000   1.0000000
B2   B   0.777947756799384   0.222070230379995   0.375000000000000   1.0000000
B2   B   0.111107889339467   0.888892000145223   0.875000000000000   1.0000000
B2   B   0.444446338596655   0.888889835964993   0.875000000000000   1.0000000
B2   B   0.277730258698196   0.388870371683792   0.875000000000000   1.0000000
B2   B   0.611122512885682   0.388870496240577   0.875000000000000   1.0000000
B2   B   0.777794077599828   0.888924848267031   0.875000000000000   1.0000000
B2   B   0.944454493508491   0.388873849278395   0.875000000000000   1.0000000
B2   B   0.111485512137143   0.388810426618390   0.375000000000000   1.0000000
B2   B   0.277744929499830   0.888934067032943   0.375000000000000   1.0000000
B2   B   0.611157556127491   0.888965353303206   0.375000000000000   1.0000000
B2   B   0.944547004692194   0.889120915325989   0.375000000000000   1.0000000
B2   B   0.777746852245632   0.388454525987555   0.375000000000000   1.0000000
B2   B   0.277754115429093   0.555552968230884   0.875000000000000   1.0000000
B2   B   0.111087811986407   0.055547473929147   0.875000000000000   1.0000000
B2   B   0.611122512885682   0.555585349978433   0.875000000000000   1.0000000
B2   B   0.444440283946601   0.055533073434049   0.875000000000000   1.0000000
B2   B   0.944467154740275   0.555554906535632   0.875000000000000   1.0000000
B2   B   0.111118971505840   0.555440016573489   0.375000000000000   1.0000000
B2   B   0.777787891046357   0.055560612189846   0.875000000000000   1.0000000
B2   B   0.277717610002877   0.055619258378676   0.375000000000000   1.0000000
B2   B   0.444110424736357   0.554968700773046   0.375000000000000   1.0000000
B2   B   0.778208013839263   0.555770673586299   0.375000000000000   1.0000000
B2   B   0.611157556127491   0.055525536157616   0.375000000000000   1.0000000
B2   B   0.444420494464697   0.555566625869205   0.875000000000000   1.0000000
B2   B   0.944563801338609   0.055681944880849   0.375000000000000   1.0000000
B2   B   0.277772845358002   0.722224120438640   0.875000000000000   1.0000000
B2   B   0.111075761971358   0.222204547652343   0.875000000000000   1.0000000
B2   B   0.444420494464697   0.222187201928827   0.875000000000000   1.0000000
B2   B   0.611123213636080   0.722265994822082   0.875000000000000   1.0000000
B2   B   0.944467154740275   0.722245581537978   0.875000000000000   1.0000000
B2   B   0.777794077599828   0.222202562666127   0.875000000000000   1.0000000
B2   B   0.111070696653837   0.722202014993583   0.375000000000000   1.0000000
B2   B   0.444360298092862   0.721897137993279   0.375000000000000   1.0000000
B2   B   0.277981352246942   0.222887535500611   0.375000000000000   1.0000000
B2   B   0.777746852245632   0.722625659591404   0.375000000000000   1.0000000
B2   B   0.611384300438474   0.221889234517478   0.375000000000000   1.0000000
B2   B   0.944563801338609   0.222215189791097   0.375000000000000   1.0000000
B2   B   0.111087811986407   0.388873671390588   0.875000000000000   1.0000000
B2   B   0.277772845358002   0.888882058252688   0.875000000000000   1.0000000
B2   B   0.611122585662045   0.888911478321149   0.875000000000000   1.0000000
B2   B   0.444403274084542   0.388868303708935   0.875000000000000   1.0000000
B2   B   0.944454493508491   0.888913977563424   0.875000000000000   1.0000000
B2   B   0.111118971505840   0.889012288265679   0.375000000000000   1.0000000
B2   B   0.777807464636218   0.388870088635090   0.875000000000000   1.0000000
B2   B   0.444426296938005   0.888879815135668   0.375000000000000   1.0000000
B2   B   0.277981352246942   0.388427150079660   0.375000000000000   1.0000000
B2   B   0.277717610002877   0.555431684957537   0.375000000000000   1.0000000
B2   B   0.612080238474713   0.386643940751541   0.375000000000000   1.0000000
B2   B   0.777947756799384   0.889210859752716   0.375000000000000   1.0000000
B2   B   0.944547004692194   0.388759422699535   0.375000000000000   1.0000000
B2   B   0.111107889339467   0.555549222527574   0.875000000000000   1.0000000
B2   B   0.277754115429093   0.055534480531545   0.875000000000000   1.0000000
B2   B   0.777812927434436   0.555573130383884   0.875000000000000   1.0000000
B2   B   0.611122585662045   0.055544440674223   0.875000000000000   1.0000000
B2   B   0.944439304271510   0.055561950977476   0.875000000000000   1.0000000
B2   B   0.055520661633629   0.111080081399502   0.124912671754730   1.0000000
B2   B   0.555493221182639   0.611239342866626   0.124939571548694   1.0000000
B2   B   0.388804636103944   0.110949703851098   0.124888091199141   1.0000000
B2   B   0.889067206418774   0.611200269876059   0.124845104052733   1.0000000
B2   B   0.722213684863788   0.111075543474211   0.124902362726245   1.0000000
B2   B   0.055635636660507   0.777808812199259   0.625093811764378   1.0000000
B2   B   0.388840916282593   0.777802156120156   0.625076685689265   1.0000000
B2   B   0.222119495829315   0.277726414581325   0.625117112105388   1.0000000
B2   B   0.722262449920555   0.777877061622414   0.625141244575647   1.0000000
B2   B   0.555493221182639   0.277587211649348   0.625060428451304   1.0000000
B2   B   0.888915906745322   0.277777449279828   0.625094239714224   1.0000000
B2   B   0.222226265720286   0.777779799526809   0.124931277411192   1.0000000
B2   B   0.055520661633629   0.277773913567463   0.124912671754730   1.0000000
B2   B   0.388767161685026   0.277647064060772   0.124809806232422   1.0000000
B2   B   0.555511143673723   0.777855384780790   0.124865791963107   1.0000000
B2   B   0.889002966556488   0.777855082335398   0.124860918828115   1.0000000
B2   B   0.722262449920555   0.277718721631478   0.124858755424352   1.0000000
B2   B   0.055575230443447   0.944430539240274   0.625083623957857   1.0000000
B2   B   0.388840916282593   0.944372093495773   0.625076685689265   1.0000000
B2   B   0.222151265750693   0.444472901771367   0.625081315293505   1.0000000
B2   B   0.555456173492218   0.444394753412774   0.625347073389883   1.0000000
B2   B   0.722213684863788   0.944471474722913   0.625097637273755   1.0000000
B2   B   0.889002966556488   0.444481217554426   0.625139081171884   1.0000000
B2   B   0.055575230443447   0.444478024536503   0.124916376042142   1.0000000
B2   B   0.222201080876344   0.944380061361254   0.124916538929979   1.0000000
B2   B   0.555515245514755   0.944424289424042   0.124910394245417   1.0000000
B2   B   0.388767161685026   0.444453430957591   0.124809806232422   1.0000000
B2   B   0.888915906745322   0.944471790798831   0.124905760285777   1.0000000
B2   B   0.722376582872145   0.444473014700259   0.124969255217420   1.0000000
B2   B   0.222201080876344   0.611154352848425   0.625083461070021   1.0000000
B2   B   0.055520661633629   0.111080081399502   0.625087328245269   1.0000000
B2   B   0.555493221182639   0.611239342866626   0.625060428451304   1.0000000
B2   B   0.388804636103944   0.110949703851098   0.625111908800859   1.0000000
B2   B   0.889067206418774   0.611200269876059   0.625154895947267   1.0000000
B2   B   0.055635636660507   0.611160157794584   0.124906188235620   1.0000000
B2   B   0.722213684863788   0.111075543474211   0.625097637273755   1.0000000
B2   B   0.222151265750693   0.111011697312662   0.124918684706495   1.0000000
B2   B   0.388804636103944   0.611188265586188   0.124888091199141   1.0000000
B2   B   0.722376582872145   0.611236901505220   0.124969255217420   1.0000000
B2   B   0.555511143673723   0.110989092226270   0.124865791963107   1.0000000
B2   B   0.388804636103944   0.611188265586188   0.625111908800859   1.0000000
B2   B   0.888883141062377   0.111108237197860   0.124925105477208   1.0000000
B2   B   0.222226265720286   0.777779799526809   0.625068722588808   1.0000000
B2   B   0.055520661633629   0.277773913567463   0.625087328245269   1.0000000
B2   B   0.388767161685026   0.277647064060772   0.625190193767578   1.0000000
B2   B   0.555511143673723   0.777855384780790   0.625134208036894   1.0000000
B2   B   0.889002966556488   0.777855082335398   0.625139081171884   1.0000000
B2   B   0.722262449920555   0.277718721631478   0.625141244575647   1.0000000
B2   B   0.055635636660507   0.777808812199259   0.124906188235620   1.0000000
B2   B   0.388840916282593   0.777802156120156   0.124923314310736   1.0000000
B2   B   0.222119495829315   0.277726414581325   0.124882887894612   1.0000000
B2   B   0.722262449920555   0.777877061622414   0.124858755424352   1.0000000
B2   B   0.555493221182639   0.277587211649348   0.124939571548694   1.0000000
B2   B   0.888915906745322   0.277777449279828   0.124905760285777   1.0000000
B2   B   0.055575230443447   0.444478024536503   0.625083623957857   1.0000000
B2   B   0.222201080876344   0.944380061361254   0.625083461070021   1.0000000
B2   B   0.555515245514755   0.944424289424042   0.625089605754582   1.0000000
B2   B   0.388767161685026   0.444453430957591   0.625190193767578   1.0000000
B2   B   0.888915906745322   0.944471790798831   0.625094239714224   1.0000000
B2   B   0.055575230443447   0.944430539240274   0.124916376042142   1.0000000
B2   B   0.722376582872145   0.444473014700259   0.625030744782579   1.0000000
B2   B   0.388840916282593   0.944372093495773   0.124923314310736   1.0000000
B2   B   0.222151265750693   0.444472901771367   0.124918684706495   1.0000000
B2   B   0.222201080876344   0.611154352848425   0.124916538929979   1.0000000
B2   B   0.555456173492218   0.444394753412774   0.124652926610115   1.0000000
B2   B   0.722213684863788   0.944471474722913   0.124902362726245   1.0000000
B2   B   0.889002966556488   0.444481217554426   0.124860918828115   1.0000000
B2   B   0.055635636660507   0.611160157794584   0.625093811764378   1.0000000
B2   B   0.222151265750693   0.111011697312662   0.625081315293505   1.0000000
B2   B   0.722376582872145   0.611236901505220   0.625030744782579   1.0000000
B2   B   0.555511143673723   0.110989092226270   0.625134208036894   1.0000000
B2   B   0.888883141062377   0.111108237197860   0.625074894522792   1.0000000


