data_1
_audit_creation_method   'vasp2cif'
_cell_length_a    14.93631414619966
_cell_length_b    14.936314146199727
_cell_length_c    13.341276283792837
_cell_angle_alpha    90.0
_cell_angle_beta    90.0
_cell_angle_gamma    119.99999999999984

_symmetry_space_group_name_H-M    'P 1'
loop_
_atom_site_label
_atom_site_type_symbol
_atom_site_fract_x
_atom_site_fract_y
_atom_site_fract_z
_atom_site_occupancy
Pb2   Pb   0.499740512794788   0.416536923064058   0.375000000000000   1.0000000
N2   N   0.111117536271727   0.055551577272367   0.124977583951764   1.0000000
N2   N   0.611194565760139   0.555669199775261   0.122824610195022   1.0000000
N2   N   0.444469160525187   0.055549373591383   0.125019397842279   1.0000000
N2   N   0.944446817413104   0.555553064741615   0.125085311644174   1.0000000
N2   N   0.777803692594200   0.055568512963768   0.124970749420156   1.0000000
N2   N   0.111111967985368   0.722222650659348   0.624986823330879   1.0000000
N2   N   0.444469160525187   0.722253120267139   0.624980602157720   1.0000000
N2   N   0.277770704655597   0.222204363476156   0.625434459177244   1.0000000
N2   N   0.777800563061094   0.722257564307103   0.625027714400088   1.0000000
N2   N   0.611145213341749   0.222197889224829   0.625175985076662   1.0000000
N2   N   0.944465878215092   0.222230341350111   0.625011543172636   1.0000000
N2   N   0.277787953653460   0.722231374753642   0.125010985279957   1.0000000
N2   N   0.111128479659174   0.222230906496251   0.124941246982662   1.0000000
N2   N   0.444494455885366   0.222220878830183   0.124480559720028   1.0000000
N2   N   0.611145213341749   0.722280657450249   0.124824014923338   1.0000000
N2   N   0.944446817413104   0.722227086004826   0.125085311644174   1.0000000
N2   N   0.777803838381686   0.222214768677769   0.125029526171862   1.0000000
N2   N   0.111117014193527   0.888890411799605   0.624995208547206   1.0000000
N2   N   0.444461779774383   0.888897556553856   0.624997796426937   1.0000000
N2   N   0.277770704655597   0.388899674512770   0.625434459177244   1.0000000
N2   N   0.611194565760139   0.388858699318206   0.627175389804978   1.0000000
N2   N   0.777803838381686   0.888922403037246   0.624970473828138   1.0000000
N2   N   0.944457758934234   0.388889514294607   0.624940203052395   1.0000000
N2   N   0.111117536271727   0.388899292332689   0.124977583951764   1.0000000
N2   N   0.277787953653460   0.888889912233146   0.125010985279957   1.0000000
N2   N   0.611133760104478   0.888916628659931   0.125018932572804   1.0000000
N2   N   0.444420697449100   0.388877015391214   0.123957421035051   1.0000000
N2   N   0.944457758934234   0.888901577972956   0.125059796947605   1.0000000
N2   N   0.777800563061094   0.388876332087320   0.124972285599912   1.0000000
N2   N   0.277799881457338   0.555576015222990   0.625002199186244   1.0000000
N2   N   0.111117536271727   0.055551577272367   0.625022416048237   1.0000000
N2   N   0.611194565760139   0.555669199775261   0.627175389804978   1.0000000
N2   N   0.444469160525187   0.055549373591383   0.624980602157720   1.0000000
N2   N   0.944446817413104   0.555553064741615   0.624914688355826   1.0000000
N2   N   0.111117014193527   0.555559935727250   0.125004791452794   1.0000000
N2   N   0.777803692594200   0.055568512963768   0.625029250579844   1.0000000
N2   N   0.277799881457338   0.055557199567683   0.124997800813756   1.0000000
N2   N   0.444494455885366   0.555606910388518   0.124480559720028   1.0000000
N2   N   0.777788665648451   0.555560999490894   0.124757374590698   1.0000000
N2   N   0.611133760104478   0.055550464777875   0.125018932572804   1.0000000
N2   N   0.444494455885366   0.555606910388518   0.625519440279972   1.0000000
N2   N   0.944465878215092   0.055568870198316   0.124988456827364   1.0000000
N2   N   0.277787953653460   0.722231374753642   0.624989014720043   1.0000000
N2   N   0.111128479659174   0.222230906496251   0.625058753017338   1.0000000
N2   N   0.444494455885366   0.222220878830183   0.625519440279972   1.0000000
N2   N   0.611145213341749   0.722280657450249   0.625175985076662   1.0000000
N2   N   0.944446817413104   0.722227086004826   0.624914688355826   1.0000000
N2   N   0.777803838381686   0.222214768677769   0.624970473828138   1.0000000
N2   N   0.111111967985368   0.722222650659348   0.125013176669121   1.0000000
N2   N   0.444469160525187   0.722253120267139   0.125019397842279   1.0000000
N2   N   0.277770704655597   0.222204363476156   0.124565540822756   1.0000000
N2   N   0.777800563061094   0.722257564307103   0.124972285599912   1.0000000
N2   N   0.611145213341749   0.222197889224829   0.124824014923338   1.0000000
N2   N   0.944465878215092   0.222230341350111   0.124988456827364   1.0000000
N2   N   0.111117536271727   0.388899292332689   0.625022416048237   1.0000000
N2   N   0.277787953653460   0.888889912233146   0.624989014720043   1.0000000
N2   N   0.611133760104478   0.888916628659931   0.624981067427196   1.0000000
N2   N   0.444420697449100   0.388877015391214   0.626042578964949   1.0000000
N2   N   0.944457758934234   0.888901577972956   0.624940203052395   1.0000000
N2   N   0.111117014193527   0.888890411799605   0.125004791452794   1.0000000
N2   N   0.777800563061094   0.388876332087320   0.625027714400088   1.0000000
N2   N   0.444461779774383   0.888897556553856   0.125002203573063   1.0000000
N2   N   0.277770704655597   0.388899674512770   0.124565540822756   1.0000000
N2   N   0.277799881457338   0.555576015222990   0.124997800813756   1.0000000
N2   N   0.611194565760139   0.388858699318206   0.122824610195022   1.0000000
N2   N   0.777803838381686   0.888922403037246   0.125029526171862   1.0000000
N2   N   0.944457758934234   0.388889514294607   0.125059796947605   1.0000000
N2   N   0.111117014193527   0.555559935727250   0.624995208547206   1.0000000
N2   N   0.277799881457338   0.055557199567683   0.625002199186244   1.0000000
N2   N   0.777788665648451   0.555560999490894   0.625242625409302   1.0000000
N2   N   0.611133760104478   0.055550464777875   0.624981067427196   1.0000000
N2   N   0.944465878215092   0.055568870198316   0.625011543172636   1.0000000
N2   N   0.058278080512261   0.112633056071939   0.375000000000000   1.0000000
N2   N   0.555760873321834   0.622172403963983   0.375000000000000   1.0000000
N2   N   0.387391985684351   0.102730378451514   0.375000000000000   1.0000000
N2   N   0.887621570598012   0.610477451965678   0.375000000000000   1.0000000
N2   N   0.724431452665693   0.111142081773065   0.375000000000000   1.0000000
N2   N   0.055547427181314   0.777774429871732   0.875000000000000   1.0000000
N2   N   0.388881332754998   0.777774588467147   0.875000000000000   1.0000000
N2   N   0.222216080683867   0.277774707008601   0.875000000000000   1.0000000
N2   N   0.722214502079966   0.777770764665429   0.875000000000000   1.0000000
N2   N   0.555543729229526   0.277769640872839   0.875000000000000   1.0000000
N2   N   0.888882825164503   0.277776809434253   0.875000000000000   1.0000000
N2   N   0.220544054402533   0.776938693867935   0.375000000000000   1.0000000
N2   N   0.058278080512261   0.278978357773658   0.375000000000000   1.0000000
N2   N   0.386773759765251   0.262838585150793   0.375000000000000   1.0000000
N2   N   0.556199581110111   0.783013018455222   0.375000000000000   1.0000000
N2   N   0.889996005866219   0.779233408365720   0.375000000000000   1.0000000
N2   N   0.724366119357998   0.276111608090337   0.375000000000000   1.0000000
N2   N   0.055546034711246   0.944439321709181   0.875000000000000   1.0000000
N2   N   0.388881332754998   0.944440077621186   0.875000000000000   1.0000000
N2   N   0.222213032919238   0.444440612804879   0.875000000000000   1.0000000
N2   N   0.555544087379518   0.444438710356423   0.875000000000000   1.0000000
N2   N   0.722213652783449   0.944438786618154   0.875000000000000   1.0000000
N2   N   0.888883591402461   0.444442787197735   0.875000000000000   1.0000000
N2   N   0.055880083535243   0.444980945988759   0.375000000000000   1.0000000
N2   N   0.220625055711318   0.941753491047420   0.375000000000000   1.0000000
N2   N   0.556256656771532   0.944794995052431   0.375000000000000   1.0000000
N2   N   0.386773759765251   0.457268507947794   0.375000000000000   1.0000000
N2   N   0.891218472512430   0.946531713618953   0.375000000000000   1.0000000
N2   N   0.724191249423656   0.443022770461752   0.375000000000000   1.0000000
N2   N   0.222211994299973   0.611105781708819   0.875000000000000   1.0000000
N2   N   0.055548057934304   0.111106470520913   0.875000000000000   1.0000000
N2   N   0.555543729229526   0.611107421690023   0.875000000000000   1.0000000
N2   N   0.388880086426662   0.111105484658128   0.875000000000000   1.0000000
N2   N   0.888886554220840   0.611109943777091   0.875000000000000   1.0000000
N2   N   0.054240058620426   0.610803050742982   0.375000000000000   1.0000000
N2   N   0.722213652783449   0.111108199498630   0.875000000000000   1.0000000
N2   N   0.221862733097689   0.108522049251209   0.375000000000000   1.0000000
N2   N   0.387391985684351   0.617994940566181   0.375000000000000   1.0000000
N2   N   0.724191249423656   0.614501812295239   0.375000000000000   1.0000000
N2   N   0.556199581110111   0.106519895988225   0.375000000000000   1.0000000
N2   N   0.388880086426662   0.611107935101877   0.875000000000000   1.0000000
N2   N   0.891645683634596   0.112489508483970   0.375000000000000   1.0000000
N2   N   0.222213307530417   0.777773320431877   0.875000000000000   1.0000000
N2   N   0.055548057934304   0.277774920746727   0.875000000000000   1.0000000
N2   N   0.388883614519758   0.277773374261588   0.875000000000000   1.0000000
N2   N   0.555545871080016   0.777772606172414   0.875000000000000   1.0000000
N2   N   0.888883591402461   0.777774137538063   0.875000000000000   1.0000000
N2   N   0.722214502079966   0.277777070747872   0.875000000000000   1.0000000
N2   N   0.054240058620426   0.776770341210780   0.375000000000000   1.0000000
N2   N   0.387850261372921   0.779589609535779   0.375000000000000   1.0000000
N2   N   0.226347511899792   0.279840422616564   0.375000000000000   1.0000000
N2   N   0.724366119357998   0.781587844600997   0.375000000000000   1.0000000
N2   N   0.555760873321834   0.266921802691187   0.375000000000000   1.0000000
N2   N   0.891218472512430   0.278020092226813   0.375000000000000   1.0000000
N2   N   0.055546034711246   0.444440046335393   0.875000000000000   1.0000000
N2   N   0.222211994299973   0.944439545924489   0.875000000000000   1.0000000
N2   N   0.555546400683833   0.944439867008581   0.875000000000000   1.0000000
N2   N   0.388883614519758   0.444443573591506   0.875000000000000   1.0000000
N2   N   0.888882825164503   0.944439349063587   0.875000000000000   1.0000000
N2   N   0.055880083535243   0.944232470879813   0.375000000000000   1.0000000
N2   N   0.722221205439030   0.444446172807184   0.875000000000000   1.0000000
N2   N   0.387850261372921   0.941593985170478   0.375000000000000   1.0000000
N2   N   0.221862733097689   0.446674017179815   0.375000000000000   1.0000000
N2   N   0.220625055711318   0.612204897997234   0.375000000000000   1.0000000
N2   N   0.724431452665693   0.946622704225964   0.375000000000000   1.0000000
N2   N   0.889996005866218   0.444095930833834   0.375000000000000   1.0000000
N2   N   0.055547427181314   0.611106330642917   0.875000000000000   1.0000000
N2   N   0.222213032919238   0.111105753447695   0.875000000000000   1.0000000
N2   N   0.722221205439030   0.611108365965182   0.875000000000000   1.0000000
N2   N   0.555545871080016   0.111106598240938   0.875000000000000   1.0000000
N2   N   0.888883066942263   0.111108200137803   0.875000000000000   1.0000000
B2   B   0.111859374809871   0.055151058019608   0.375000000000000   1.0000000
B2   B   0.617033542227382   0.575461190071687   0.375000000000000   1.0000000
B2   B   0.444676080235800   0.050825314246873   0.375000000000000   1.0000000
B2   B   0.943695622112432   0.555158188661544   0.375000000000000   1.0000000
B2   B   0.780743648727263   0.057038491030300   0.375000000000000   1.0000000
B2   B   0.111107969865462   0.722220651599396   0.875000000000000   1.0000000
B2   B   0.444429216799529   0.722212172621438   0.875000000000000   1.0000000
B2   B   0.277764763532789   0.222218170676311   0.875000000000000   1.0000000
B2   B   0.777771691292191   0.722219204206513   0.875000000000000   1.0000000
B2   B   0.611095145061616   0.222215289110757   0.875000000000000   1.0000000
B2   B   0.944447721597424   0.222221038903737   0.875000000000000   1.0000000
B2   B   0.276688583710265   0.722772032040849   0.375000000000000   1.0000000
B2   B   0.115082840046937   0.224208086690133   0.375000000000000   1.0000000
B2   B   0.442751649611739   0.211241478979910   0.375000000000000   1.0000000
B2   B   0.613314086645551   0.730912818321516   0.375000000000000   1.0000000
B2   B   0.943695622112432   0.721870766784223   0.375000000000000   1.0000000
B2   B   0.780526222289678   0.221764158175065   0.375000000000000   1.0000000
B2   B   0.111107531903319   0.888893770565267   0.875000000000000   1.0000000
B2   B   0.444432887076892   0.888883110205111   0.875000000000000   1.0000000
B2   B   0.277764763532789   0.388879926189806   0.875000000000000   1.0000000
B2   B   0.611092217247958   0.388881439040302   0.875000000000000   1.0000000
B2   B   0.777774636421226   0.888889569919982   0.875000000000000   1.0000000
B2   B   0.944445737771174   0.388883576948395   0.875000000000000   1.0000000
B2   B   0.111859374809871   0.390041650123591   0.375000000000000   1.0000000
B2   B   0.276688583710265   0.887249885002744   0.375000000000000   1.0000000
B2   B   0.613249507966404   0.892278100688884   0.375000000000000   1.0000000
B2   B   0.945664047465418   0.890170357325331   0.375000000000000   1.0000000
B2   B   0.780125142806108   0.387396075130933   0.375000000000000   1.0000000
B2   B   0.277765802132154   0.555543143681749   0.875000000000000   1.0000000
B2   B   0.111108990406527   0.055560266644872   0.875000000000000   1.0000000
B2   B   0.611092217247958   0.555544111540984   0.875000000000000   1.0000000
B2   B   0.444429216799529   0.055550377511426   0.875000000000000   1.0000000
B2   B   0.944445782898595   0.555553676042981   0.875000000000000   1.0000000
B2   B   0.110105709730564   0.555824725970323   0.375000000000000   1.0000000
B2   B   0.777776598516631   0.055554965924983   0.875000000000000   1.0000000
B2   B   0.276610147796081   0.052059856027537   0.375000000000000   1.0000000
B2   B   0.442751649611739   0.564843503965165   0.375000000000000   1.0000000
B2   B   0.776817387499618   0.555075360416477   0.375000000000000   1.0000000
B2   B   0.613249507966404   0.054304740610849   0.375000000000000   1.0000000
B2   B   0.444426429627239   0.555545584877939   0.875000000000000   1.0000000
B2   B   0.947483373298521   0.057554409051208   0.375000000000000   1.0000000
B2   B   0.277768496815823   0.722214219358855   0.875000000000000   1.0000000
B2   B   0.111110945653389   0.222222139493359   0.875000000000000   1.0000000
B2   B   0.444426429627239   0.222214178082636   0.875000000000000   1.0000000
B2   B   0.611095145061616   0.722213189284187   0.875000000000000   1.0000000
B2   B   0.944445782898595   0.722225440188949   0.875000000000000   1.0000000
B2   B   0.777774636421226   0.222218399834572   0.875000000000000   1.0000000
B2   B   0.109783509467943   0.721558421400636   0.375000000000000   1.0000000
B2   B   0.444676080235800   0.727184099322262   0.375000000000000   1.0000000
B2   B   0.279131066166245   0.220074928156208   0.375000000000000   1.0000000
B2   B   0.780125142806108   0.726062401008504   0.375000000000000   1.0000000
B2   B   0.613314086645551   0.215734601657364   0.375000000000000   1.0000000
B2   B   0.947483373298521   0.223262297580648   0.375000000000000   1.0000000
B2   B   0.111108990406527   0.388882057094983   0.875000000000000   1.0000000
B2   B   0.277768496815823   0.888887610790298   0.875000000000000   1.0000000
B2   B   0.611100870740295   0.888883923704747   0.875000000000000   1.0000000
B2   B   0.444428831949898   0.388881082641613   0.875000000000000   1.0000000
B2   B   0.944445737771174   0.888895494156107   0.875000000000000   1.0000000
B2   B   0.110105709730564   0.887614317093570   0.375000000000000   1.0000000
B2   B   0.777771691292191   0.388885820419005   0.875000000000000   1.0000000
B2   B   0.444808447817096   0.889070890575212   0.375000000000000   1.0000000
B2   B   0.279131066166245   0.392389471343365   0.375000000000000   1.0000000
B2   B   0.276610147796081   0.557883625101879   0.375000000000000   1.0000000
B2   B   0.617033542227382   0.374905685489025   0.375000000000000   1.0000000
B2   B   0.780526222289678   0.892095397447943   0.375000000000000   1.0000000
B2   B   0.945664047465418   0.388827023473416   0.375000000000000   1.0000000
B2   B   0.111107531903319   0.555547094671382   0.875000000000000   1.0000000
B2   B   0.277765802132154   0.055555991783741   0.875000000000000   1.0000000
B2   B   0.777772167103083   0.555552750218210   0.875000000000000   1.0000000
B2   B   0.611100870740295   0.055550280368877   0.875000000000000   1.0000000
B2   B   0.944447721597424   0.055560016027022   0.875000000000000   1.0000000
B2   B   0.055598600555512   0.111143737327621   0.125012879277035   1.0000000
B2   B   0.555567442398274   0.611163036255156   0.123985341761456   1.0000000
B2   B   0.388889818300972   0.111095727045561   0.124966336328661   1.0000000
B2   B   0.888910181134210   0.611121757233776   0.124995864662915   1.0000000
B2   B   0.722240660100757   0.111098186553206   0.124991530593531   1.0000000
B2   B   0.055586759813014   0.777804254274445   0.624994492120511   1.0000000
B2   B   0.388895038468904   0.777785842455165   0.624992930128116   1.0000000
B2   B   0.222248476386176   0.277790904859756   0.625156155398053   1.0000000
B2   B   0.722240766501411   0.777838623208928   0.625109542478716   1.0000000
B2   B   0.555567442398274   0.277737739476455   0.626014658238543   1.0000000
B2   B   0.888925300319895   0.277767192440724   0.624984936609907   1.0000000
B2   B   0.222240989695072   0.777787161514204   0.124997582009018   1.0000000
B2   B   0.055598600555512   0.277788196561227   0.125012879277035   1.0000000
B2   B   0.388791321146094   0.277636353757988   0.124438794546256   1.0000000
B2   B   0.555557234186163   0.777814393492286   0.124980269311234   1.0000000
B2   B   0.888927453181956   0.777826082463029   0.125016975137689   1.0000000
B2   B   0.722240766501411   0.277735476625818   0.124890457521284   1.0000000
B2   B   0.055591537524648   0.944484201671428   0.624980172838641   1.0000000
B2   B   0.388895038468904   0.944442529347074   0.624992930128116   1.0000000
B2   B   0.222237355026993   0.444448018156060   0.625016382512130   1.0000000
B2   B   0.555692813814518   0.444513073573923   0.626520894964052   1.0000000
B2   B   0.722240660100757   0.944475806880886   0.625008469406469   1.0000000
B2   B   0.888927453181956   0.444434704052261   0.624983024862311   1.0000000
B2   B   0.055591537524648   0.444440669186549   0.125019827161359   1.0000000
B2   B   0.222246575866579   0.944470198195245   0.125018576428393   1.0000000
B2   B   0.555561228457979   0.944447280895654   0.125003107424516   1.0000000
B2   B   0.388791321146094   0.444488300721442   0.124438794546256   1.0000000
B2   B   0.888925300319895   0.944491441212507   0.125015063390093   1.0000000
B2   B   0.722242344770849   0.444424552336505   0.124067936052777   1.0000000
B2   B   0.222246575866579   0.611109711004669   0.624981423571607   1.0000000
B2   B   0.055598600555512   0.111143737327621   0.624987120722965   1.0000000
B2   B   0.555567442398274   0.611163036255156   0.626014658238543   1.0000000
B2   B   0.388889818300972   0.111095727045561   0.625033663671339   1.0000000
B2   B   0.888910181134210   0.611121757233776   0.625004135337085   1.0000000
B2   B   0.055586759813014   0.611115838871905   0.125005507879489   1.0000000
B2   B   0.722240660100757   0.111098186553206   0.625008469406469   1.0000000
B2   B   0.222237355026993   0.111122670204269   0.124983617487870   1.0000000
B2   B   0.388889818300972   0.611127424588754   0.124966336328661   1.0000000
B2   B   0.722242344770849   0.611151125767680   0.124067936052777   1.0000000
B2   B   0.555557234186163   0.111076174027212   0.124980269311234   1.0000000
B2   B   0.388889818300972   0.611127424588754   0.625033663671339   1.0000000
B2   B   0.888924902910687   0.111129118122015   0.124996632176805   1.0000000
B2   B   0.222240989695072   0.777787161514204   0.625002417990982   1.0000000
B2   B   0.055598600555512   0.277788196561227   0.624987120722965   1.0000000
B2   B   0.388791321146094   0.277636353757988   0.625561205453744   1.0000000
B2   B   0.555557234186163   0.777814393492286   0.625019730688766   1.0000000
B2   B   0.888927453181956   0.777826082463029   0.624983024862311   1.0000000
B2   B   0.722240766501411   0.277735476625818   0.625109542478716   1.0000000
B2   B   0.055586759813014   0.777804254274445   0.125005507879489   1.0000000
B2   B   0.388895038468904   0.777785842455165   0.125007069871884   1.0000000
B2   B   0.222248476386176   0.277790904859756   0.124843844601947   1.0000000
B2   B   0.722240766501411   0.777838623208928   0.124890457521284   1.0000000
B2   B   0.555567442398274   0.277737739476455   0.123985341761456   1.0000000
B2   B   0.888925300319895   0.277767192440724   0.125015063390093   1.0000000
B2   B   0.055591537524648   0.444440669186549   0.624980172838641   1.0000000
B2   B   0.222246575866579   0.944470198195245   0.624981423571607   1.0000000
B2   B   0.555561228457979   0.944447280895654   0.624996892575484   1.0000000
B2   B   0.388791321146094   0.444488300721442   0.625561205453744   1.0000000
B2   B   0.888925300319895   0.944491441212507   0.624984936609907   1.0000000
B2   B   0.055591537524648   0.944484201671428   0.125019827161359   1.0000000
B2   B   0.722242344770849   0.444424552336505   0.625932063947223   1.0000000
B2   B   0.388895038468904   0.944442529347074   0.125007069871884   1.0000000
B2   B   0.222237355026993   0.444448018156060   0.124983617487870   1.0000000
B2   B   0.222246575866579   0.611109711004669   0.125018576428393   1.0000000
B2   B   0.555692813814518   0.444513073573923   0.123479105035948   1.0000000
B2   B   0.722240660100757   0.944475806880886   0.124991530593531   1.0000000
B2   B   0.888927453181956   0.444434704052261   0.125016975137689   1.0000000
B2   B   0.055586759813014   0.611115838871905   0.624994492120511   1.0000000
B2   B   0.222237355026993   0.111122670204269   0.625016382512130   1.0000000
B2   B   0.722242344770849   0.611151125767680   0.625932063947223   1.0000000
B2   B   0.555557234186163   0.111076174027212   0.625019730688766   1.0000000
B2   B   0.888924902910687   0.111129118122015   0.625003367823195   1.0000000


