data_1
_audit_creation_method   'vasp2cif'
_cell_length_a    14.93631414619966
_cell_length_b    14.936314146199727
_cell_length_c    13.341276283792837
_cell_angle_alpha    90.0
_cell_angle_beta    90.0
_cell_angle_gamma    119.99999999999984

_symmetry_space_group_name_H-M    'P 1'
loop_
_atom_site_label
_atom_site_type_symbol
_atom_site_fract_x
_atom_site_fract_y
_atom_site_fract_z
_atom_site_occupancy
C2   C   0.445102494117882   0.391795117382700   0.375000000000000   1.0000000
N2   N   0.544176642101973   0.442542625725918   0.375000000000000   1.0000000
N2   N   0.111065940589267   0.055516522629137   0.125061348923623   1.0000000
N2   N   0.611068926493368   0.555498424068893   0.125426053289053   1.0000000
N2   N   0.444417658679997   0.055551544657359   0.125055501400535   1.0000000
N2   N   0.944391725436448   0.555514713316095   0.125137853268934   1.0000000
N2   N   0.777748493580539   0.055509448543820   0.124998807361009   1.0000000
N2   N   0.111065375488904   0.722190053235744   0.624969004455339   1.0000000
N2   N   0.444405616459645   0.722185318718236   0.624930446913502   1.0000000
N2   N   0.277729856084947   0.222190552275246   0.624803603060125   1.0000000
N2   N   0.777737806691427   0.722178723651107   0.624883428068519   1.0000000
N2   N   0.611096716127548   0.222207926554215   0.624809291217876   1.0000000
N2   N   0.944411210388777   0.222179458575729   0.624979122026815   1.0000000
N2   N   0.277737277777127   0.722196529343778   0.125036907197642   1.0000000
N2   N   0.111065247670618   0.222176691388785   0.125086918489875   1.0000000
N2   N   0.444393078488651   0.222212249643547   0.125211199621459   1.0000000
N2   N   0.611070929291260   0.722165797816792   0.125107174712950   1.0000000
N2   N   0.944401182296889   0.722187638562044   0.125030099827838   1.0000000
N2   N   0.777750473332570   0.222181268380928   0.125028978424581   1.0000000
N2   N   0.111072944063246   0.888863495071396   0.624989513529224   1.0000000
N2   N   0.444411939592150   0.888871829395776   0.624985392783970   1.0000000
N2   N   0.277740595261764   0.388846100415735   0.624798533104989   1.0000000
N2   N   0.611065041212741   0.388860184237122   0.625486680591718   1.0000000
N2   N   0.777743655801872   0.888844556507801   0.624968456798239   1.0000000
N2   N   0.944406161456410   0.388849975144106   0.624986502912206   1.0000000
N2   N   0.111072639128207   0.388852755824315   0.125062909294809   1.0000000
N2   N   0.277746291200406   0.888874624274794   0.125007375794563   1.0000000
N2   N   0.611073714602855   0.888850833872211   0.125033246053252   1.0000000
N2   N   0.444385227155194   0.388845201892231   0.125158417079704   1.0000000
N2   N   0.944407118938717   0.888850322738161   0.125030900265482   1.0000000
N2   N   0.777744423629256   0.388848519372295   0.125251519490823   1.0000000
N2   N   0.277738866526389   0.555520591044255   0.624911982540296   1.0000000
N2   N   0.111065940589267   0.055516522629137   0.624938651076377   1.0000000
N2   N   0.611068926493368   0.555498424068893   0.624573946710947   1.0000000
N2   N   0.444417658679997   0.055551544657359   0.624944498599465   1.0000000
N2   N   0.944391725436448   0.555514713316095   0.624862146731065   1.0000000
N2   N   0.111062891095894   0.555522379839932   0.125050726168156   1.0000000
N2   N   0.777748493580539   0.055509448543820   0.625001192638998   1.0000000
N2   N   0.277740860408652   0.055540552090029   0.125051031351885   1.0000000
N2   N   0.444406333624965   0.555502560743518   0.125201576311574   1.0000000
N2   N   0.777733714595041   0.555521430373005   0.125324745721802   1.0000000
N2   N   0.611082991903309   0.055534982351114   0.125026171651206   1.0000000
N2   N   0.444406333624965   0.555502560743518   0.624798423688433   1.0000000
N2   N   0.944407758621808   0.055508234134935   0.125045507564080   1.0000000
N2   N   0.277737277777127   0.722196529343778   0.624963092802358   1.0000000
N2   N   0.111065247670618   0.222176691388785   0.624913081510125   1.0000000
N2   N   0.444393078488651   0.222212249643547   0.624788800378541   1.0000000
N2   N   0.611070929291260   0.722165797816792   0.624892825287050   1.0000000
N2   N   0.944401182296889   0.722187638562044   0.624969900172169   1.0000000
N2   N   0.777750473332570   0.222181268380928   0.624971021575419   1.0000000
N2   N   0.111065375488904   0.722190053235744   0.125030995544660   1.0000000
N2   N   0.444405616459645   0.722185318718236   0.125069553086498   1.0000000
N2   N   0.277729856084947   0.222190552275246   0.125196396939875   1.0000000
N2   N   0.777737806691427   0.722178723651107   0.125116571931481   1.0000000
N2   N   0.611096716127548   0.222207926554215   0.125190708782124   1.0000000
N2   N   0.944411210388777   0.222179458575729   0.125020877973186   1.0000000
N2   N   0.111072639128207   0.388852755824315   0.624937090705192   1.0000000
N2   N   0.277746291200406   0.888874624274794   0.624992624205437   1.0000000
N2   N   0.611073714602855   0.888850833872211   0.624966753946748   1.0000000
N2   N   0.444385227155194   0.388845201892231   0.624841582920296   1.0000000
N2   N   0.944407118938717   0.888850322738161   0.624969099734518   1.0000000
N2   N   0.111072944063246   0.888863495071396   0.125010486470775   1.0000000
N2   N   0.777744423629256   0.388848519372295   0.624748480509177   1.0000000
N2   N   0.444411939592150   0.888871829395776   0.125014607216029   1.0000000
N2   N   0.277740595261764   0.388846100415735   0.125201466895011   1.0000000
N2   N   0.277738866526389   0.555520591044255   0.125088017459704   1.0000000
N2   N   0.611065041212741   0.388860184237122   0.124513319408289   1.0000000
N2   N   0.777743655801872   0.888844556507801   0.125031543201761   1.0000000
N2   N   0.944406161456410   0.388849975144106   0.125013497087794   1.0000000
N2   N   0.111062891095894   0.555522379839932   0.624949273831843   1.0000000
N2   N   0.277740860408652   0.055540552090029   0.624948968648114   1.0000000
N2   N   0.777733714595041   0.555521430373005   0.624675254278197   1.0000000
N2   N   0.611082991903309   0.055534982351114   0.624973828348794   1.0000000
N2   N   0.944407758621808   0.055508234134935   0.624954492435920   1.0000000
N2   N   0.055621832013693   0.110906802723146   0.375000000000000   1.0000000
N2   N   0.554540978192232   0.611165352332193   0.375000000000000   1.0000000
N2   N   0.390206862021057   0.114419992943512   0.375000000000000   1.0000000
N2   N   0.888405390924290   0.610609821196470   0.375000000000000   1.0000000
N2   N   0.722767876147890   0.110468703748371   0.375000000000000   1.0000000
N2   N   0.055526628475220   0.777764531591175   0.875000000000000   1.0000000
N2   N   0.388855880840719   0.777760318081606   0.875000000000000   1.0000000
N2   N   0.222193687812021   0.277765482745014   0.875000000000000   1.0000000
N2   N   0.722186853318103   0.777762361102425   0.875000000000000   1.0000000
N2   N   0.555519446709613   0.277757171748987   0.875000000000000   1.0000000
N2   N   0.888858024500703   0.277765212308671   0.875000000000000   1.0000000
N2   N   0.222613470149260   0.778646814857464   0.375000000000000   1.0000000
N2   N   0.055877543968888   0.277675679928488   0.375000000000000   1.0000000
N2   N   0.390844980568286   0.284306361712857   0.375000000000000   1.0000000
N2   N   0.555225667066439   0.777711760596621   0.375000000000000   1.0000000
N2   N   0.887888395771365   0.776599442586546   0.375000000000000   1.0000000
N2   N   0.724480440023030   0.277331354046454   0.375000000000000   1.0000000
N2   N   0.055525726620634   0.944434223265326   0.875000000000000   1.0000000
N2   N   0.388857609351845   0.944425400013094   0.875000000000000   1.0000000
N2   N   0.222191721729023   0.444429540918485   0.875000000000000   1.0000000
N2   N   0.555517757844247   0.444432540944466   0.875000000000000   1.0000000
N2   N   0.722186523685777   0.944427791248282   0.875000000000000   1.0000000
N2   N   0.888862320064547   0.444432337206126   0.875000000000000   1.0000000
N2   N   0.056688620015106   0.444664478670555   0.375000000000000   1.0000000
N2   N   0.223060726936818   0.945966035223361   0.375000000000000   1.0000000
N2   N   0.555662790840799   0.944529299425727   0.375000000000000   1.0000000
N2   N   0.388612144164468   0.442824981556027   0.375000000000000   1.0000000
N2   N   0.888716033446295   0.943727396692844   0.375000000000000   1.0000000
N2   N   0.725140951780293   0.443118976173802   0.375000000000000   1.0000000
N2   N   0.222189679544450   0.611092633040010   0.875000000000000   1.0000000
N2   N   0.055525354792267   0.111097312108549   0.875000000000000   1.0000000
N2   N   0.555518522740048   0.611093212859140   0.875000000000000   1.0000000
N2   N   0.388858061442855   0.111091913196572   0.875000000000000   1.0000000
N2   N   0.888859798818737   0.611095213864346   0.875000000000000   1.0000000
N2   N   0.055903852443773   0.611478958949366   0.375000000000000   1.0000000
N2   N   0.722184728327568   0.111092879931646   0.875000000000000   1.0000000
N2   N   0.223718541509229   0.113316493784819   0.375000000000000   1.0000000
N2   N   0.388584970898647   0.610684392435442   0.375000000000000   1.0000000
N2   N   0.719274267943835   0.608004010300880   0.375000000000000   1.0000000
N2   N   0.556423268111571   0.111422306206789   0.375000000000000   1.0000000
N2   N   0.388855930500076   0.611093480695426   0.875000000000000   1.0000000
N2   N   0.889148747089936   0.110555640008121   0.375000000000000   1.0000000
N2   N   0.222192059647026   0.777760479391553   0.875000000000000   1.0000000
N2   N   0.055525609185182   0.277764596544493   0.875000000000000   1.0000000
N2   N   0.388858504425616   0.277765638572029   0.875000000000000   1.0000000
N2   N   0.555519036058365   0.777759806186512   0.875000000000000   1.0000000
N2   N   0.888857809159419   0.777766029789513   0.875000000000000   1.0000000
N2   N   0.722188435381986   0.277760925485035   0.875000000000000   1.0000000
N2   N   0.055712832265072   0.778168181936646   0.375000000000000   1.0000000
N2   N   0.388983303496598   0.778236047486746   0.375000000000000   1.0000000
N2   N   0.221696434642555   0.277927088173295   0.375000000000000   1.0000000
N2   N   0.721637334882870   0.776726041186926   0.375000000000000   1.0000000
N2   N   0.555150993304420   0.273224426204068   0.375000000000000   1.0000000
N2   N   0.889960753504169   0.277489485442816   0.375000000000000   1.0000000
N2   N   0.055525534813888   0.444431319377804   0.875000000000000   1.0000000
N2   N   0.222193127621912   0.944429512676742   0.875000000000000   1.0000000
N2   N   0.555517976296602   0.944425946235412   0.875000000000000   1.0000000
N2   N   0.388857427194806   0.444432459335527   0.875000000000000   1.0000000
N2   N   0.888858936937592   0.944432253610186   0.875000000000000   1.0000000
N2   N   0.055836363445686   0.944786701866873   0.375000000000000   1.0000000
N2   N   0.722192145309933   0.444429804673206   0.875000000000000   1.0000000
N2   N   0.389439411108152   0.945915202759189   0.375000000000000   1.0000000
N2   N   0.222857780516212   0.444626636721349   0.375000000000000   1.0000000
N2   N   0.222517222239873   0.611550823098248   0.375000000000000   1.0000000
N2   N   0.722162019562747   0.943722230567484   0.375000000000000   1.0000000
N2   N   0.890778076234148   0.444329505266051   0.375000000000000   1.0000000
N2   N   0.055526453375598   0.611094821061708   0.875000000000000   1.0000000
N2   N   0.222192278036385   0.111097564332588   0.875000000000000   1.0000000
N2   N   0.722184536577622   0.611093888134447   0.875000000000000   1.0000000
N2   N   0.555518708831090   0.111089058468657   0.875000000000000   1.0000000
N2   N   0.888857322536004   0.111095631108820   0.875000000000000   1.0000000
B2   B   0.111899019403993   0.056206374317881   0.375000000000000   1.0000000
B2   B   0.607228939587325   0.552585956181891   0.375000000000000   1.0000000
B2   B   0.445447813067508   0.057785416216116   0.375000000000000   1.0000000
B2   B   0.944676307243860   0.555431805221291   0.375000000000000   1.0000000
B2   B   0.777927786260807   0.054865889516581   0.375000000000000   1.0000000
B2   B   0.111074957884167   0.722203250757097   0.875000000000000   1.0000000
B2   B   0.444416328109405   0.722214273990799   0.875000000000000   1.0000000
B2   B   0.277777654746150   0.222213270626224   0.875000000000000   1.0000000
B2   B   0.777734184539724   0.722182218442509   0.875000000000000   1.0000000
B2   B   0.611073907180330   0.222221880242316   0.875000000000000   1.0000000
B2   B   0.944392954915940   0.222210460785495   0.875000000000000   1.0000000
B2   B   0.277972434727323   0.722886981732155   0.375000000000000   1.0000000
B2   B   0.110511710011601   0.221715834668218   0.375000000000000   1.0000000
B2   B   0.448171390512254   0.227797745706013   0.375000000000000   1.0000000
B2   B   0.610787855365288   0.722387482117597   0.375000000000000   1.0000000
B2   B   0.944168521599789   0.721742055742597   0.375000000000000   1.0000000
B2   B   0.778867499422775   0.221525977833101   0.375000000000000   1.0000000
B2   B   0.111084622683336   0.888871305882690   0.875000000000000   1.0000000
B2   B   0.444416963563692   0.888886467524755   0.875000000000000   1.0000000
B2   B   0.277760176921817   0.388878689507204   0.875000000000000   1.0000000
B2   B   0.611080948095858   0.388860997293337   0.875000000000000   1.0000000
B2   B   0.777737841377142   0.888869739363151   0.875000000000000   1.0000000
B2   B   0.944389294893867   0.388875269287788   0.875000000000000   1.0000000
B2   B   0.111542743412236   0.388800431017687   0.375000000000000   1.0000000
B2   B   0.278424285686193   0.890121251675065   0.375000000000000   1.0000000
B2   B   0.611045918059484   0.888901098869175   0.375000000000000   1.0000000
B2   B   0.944204879795205   0.888200593282848   0.375000000000000   1.0000000
B2   B   0.779173768369976   0.388015591725317   0.375000000000000   1.0000000
B2   B   0.277747525326344   0.555546629525446   0.875000000000000   1.0000000
B2   B   0.111088235810049   0.055540105738660   0.875000000000000   1.0000000
B2   B   0.611079940520075   0.555511864849760   0.875000000000000   1.0000000
B2   B   0.444430214491040   0.055555400985045   0.875000000000000   1.0000000
B2   B   0.944393041259275   0.555527403461983   0.875000000000000   1.0000000
B2   B   0.111446645652771   0.555834618873751   0.375000000000000   1.0000000
B2   B   0.777730208813476   0.055547960232710   0.875000000000000   1.0000000
B2   B   0.279303899793385   0.057581372619518   0.375000000000000   1.0000000
B2   B   0.444498514426562   0.555761283713135   0.375000000000000   1.0000000
B2   B   0.775780750842739   0.552804793222758   0.375000000000000   1.0000000
B2   B   0.611538161248789   0.055690327100415   0.375000000000000   1.0000000
B2   B   0.444427082265529   0.555542650916118   0.875000000000000   1.0000000
B2   B   0.944363424297830   0.054856056755908   0.375000000000000   1.0000000
B2   B   0.277747418057214   0.722212582271939   0.875000000000000   1.0000000
B2   B   0.111078824195982   0.222208073056301   0.875000000000000   1.0000000
B2   B   0.444455203790925   0.222220551083578   0.875000000000000   1.0000000
B2   B   0.611078770237924   0.722200639155711   0.875000000000000   1.0000000
B2   B   0.944401214327916   0.722188380654651   0.875000000000000   1.0000000
B2   B   0.777721596872495   0.222216854904154   0.875000000000000   1.0000000
B2   B   0.111443335240202   0.722801586852544   0.375000000000000   1.0000000
B2   B   0.444262016875708   0.722343439775266   0.375000000000000   1.0000000
B2   B   0.278467085745578   0.224478985593093   0.375000000000000   1.0000000
B2   B   0.776110028303703   0.719864928673389   0.375000000000000   1.0000000
B2   B   0.613399397935439   0.223584615393206   0.375000000000000   1.0000000
B2   B   0.944795476981601   0.221669584681617   0.375000000000000   1.0000000
B2   B   0.111067642077139   0.388876596096614   0.875000000000000   1.0000000
B2   B   0.277759026938217   0.888880845701659   0.875000000000000   1.0000000
B2   B   0.611073677007028   0.888881511121614   0.875000000000000   1.0000000
B2   B   0.444452063102495   0.388878407934789   0.875000000000000   1.0000000
B2   B   0.944407647730360   0.888864438993689   0.875000000000000   1.0000000
B2   B   0.111675319206282   0.889528329686208   0.375000000000000   1.0000000
B2   B   0.777722339907614   0.388868565468996   0.875000000000000   1.0000000
B2   B   0.444603672918663   0.889755513780556   0.375000000000000   1.0000000
B2   B   0.276685478346033   0.387987119166161   0.375000000000000   1.0000000
B2   B   0.277720190226627   0.555832179976033   0.375000000000000   1.0000000
B2   B   0.777533373681446   0.887999740412027   0.375000000000000   1.0000000
B2   B   0.945669052621609   0.388675957124993   0.375000000000000   1.0000000
B2   B   0.111067166019803   0.555539849529819   0.875000000000000   1.0000000
B2   B   0.277774537562480   0.055548484403566   0.875000000000000   1.0000000
B2   B   0.777726694488855   0.555508981227082   0.875000000000000   1.0000000
B2   B   0.611070320151327   0.055554996990220   0.875000000000000   1.0000000
B2   B   0.944403284252809   0.055538748075362   0.875000000000000   1.0000000
B2   B   0.055496887849607   0.111040050932281   0.124985745179058   1.0000000
B2   B   0.555594551051171   0.611026929830178   0.125124377106361   1.0000000
B2   B   0.388944187058143   0.111190109877692   0.125163514217428   1.0000000
B2   B   0.888749086141788   0.611013692651747   0.125187619843636   1.0000000
B2   B   0.722178412392965   0.111108649619497   0.125013507122480   1.0000000
B2   B   0.055484494461841   0.777732500426029   0.625005100588839   1.0000000
B2   B   0.388866485863119   0.777794027309003   0.625003015636291   1.0000000
B2   B   0.222174329228996   0.277702212275227   0.625024678294454   1.0000000
B2   B   0.722208229306833   0.777718513979900   0.624975556932455   1.0000000
B2   B   0.555643133698080   0.277925685553816   0.624247144683067   1.0000000
B2   B   0.888796698628506   0.277736605516439   0.625020526784919   1.0000000
B2   B   0.222180030510512   0.777780466756413   0.124996291239623   1.0000000
B2   B   0.055479565507878   0.277727090454923   0.124971629749437   1.0000000
B2   B   0.388971004241084   0.277763398180726   0.125032664659278   1.0000000
B2   B   0.555544926090762   0.777756408060214   0.125000040224679   1.0000000
B2   B   0.888831486505125   0.777705933277967   0.125007824636543   1.0000000
B2   B   0.722122752991046   0.277773618800026   0.125272593489994   1.0000000
B2   B   0.055509184094074   0.944386617421657   0.625010877365814   1.0000000
B2   B   0.388894653326635   0.944502618980768   0.624979622892879   1.0000000
B2   B   0.222164659380548   0.444410032362804   0.625021517853605   1.0000000
B2   B   0.555642785279874   0.444273645202860   0.624488981556737   1.0000000
B2   B   0.722193407944703   0.944417777777089   0.625007566165154   1.0000000
B2   B   0.888726909343108   0.444358195808875   0.624834215622344   1.0000000
B2   B   0.055452687728859   0.444400263175829   0.124985296745568   1.0000000
B2   B   0.222205333847402   0.944442021882545   0.124998864132435   1.0000000
B2   B   0.555540040117267   0.944471980526580   0.125004160338170   1.0000000
B2   B   0.388933762517603   0.444360258272277   0.124900679137186   1.0000000
B2   B   0.888842694955807   0.944385556725508   0.124992951627974   1.0000000
B2   B   0.721988015187397   0.444287088489361   0.125665499565539   1.0000000
B2   B   0.222160081856717   0.611099673870742   0.625008083052653   1.0000000
B2   B   0.055496887849607   0.111040050932281   0.625014254820942   1.0000000
B2   B   0.555594551051171   0.611026929830178   0.624875622893639   1.0000000
B2   B   0.388944187058143   0.111190109877692   0.624836485782572   1.0000000
B2   B   0.888749086141788   0.611013692651747   0.624812380156364   1.0000000
B2   B   0.055453915454247   0.611065326099877   0.125027300361639   1.0000000
B2   B   0.722178412392965   0.111108649619497   0.624986492877520   1.0000000
B2   B   0.222198764529767   0.111055733123808   0.125010871729218   1.0000000
B2   B   0.388874034840812   0.611089081354298   0.124998454709058   1.0000000
B2   B   0.722171734654186   0.610984691489528   0.125334768118932   1.0000000
B2   B   0.555572616271243   0.111211971152316   0.125179564591806   1.0000000
B2   B   0.388874034840812   0.611089081354298   0.625001545290942   1.0000000
B2   B   0.888827028417184   0.111061274113230   0.124980876792704   1.0000000
B2   B   0.222180030510512   0.777780466756413   0.625003708760377   1.0000000
B2   B   0.055479565507878   0.277727090454923   0.625028370250563   1.0000000
B2   B   0.388971004241084   0.277763398180726   0.624967335340722   1.0000000
B2   B   0.555544926090762   0.777756408060214   0.624999959775321   1.0000000
B2   B   0.888831486505125   0.777705933277967   0.624992175363457   1.0000000
B2   B   0.722122752991046   0.277773618800026   0.624727406510005   1.0000000
B2   B   0.055484494461841   0.777732500426029   0.124994899411161   1.0000000
B2   B   0.388866485863119   0.777794027309003   0.124996984363709   1.0000000
B2   B   0.222174329228996   0.277702212275227   0.124975321705545   1.0000000
B2   B   0.722208229306833   0.777718513979900   0.125024443067545   1.0000000
B2   B   0.555643133698080   0.277925685553816   0.125752855316933   1.0000000
B2   B   0.888796698628506   0.277736605516439   0.124979473215081   1.0000000
B2   B   0.055452687728859   0.444400263175829   0.625014703254432   1.0000000
B2   B   0.222205333847402   0.944442021882545   0.625001135867565   1.0000000
B2   B   0.555540040117267   0.944471980526580   0.624995839661831   1.0000000
B2   B   0.388933762517603   0.444360258272277   0.625099320862814   1.0000000
B2   B   0.888842694955807   0.944385556725508   0.625007048372026   1.0000000
B2   B   0.055509184094074   0.944386617421657   0.124989122634185   1.0000000
B2   B   0.721988015187397   0.444287088489361   0.624334500434461   1.0000000
B2   B   0.388894653326635   0.944502618980768   0.125020377107120   1.0000000
B2   B   0.222164659380548   0.444410032362804   0.124978482146395   1.0000000
B2   B   0.222160081856717   0.611099673870742   0.124991916947347   1.0000000
B2   B   0.555642785279874   0.444273645202860   0.125511018443263   1.0000000
B2   B   0.722193407944703   0.944417777777089   0.124992433834846   1.0000000
B2   B   0.888726909343108   0.444358195808875   0.125165784377656   1.0000000
B2   B   0.055453915454247   0.611065326099877   0.624972699638360   1.0000000
B2   B   0.222198764529767   0.111055733123808   0.624989128270782   1.0000000
B2   B   0.722171734654186   0.610984691489528   0.624665231881068   1.0000000
B2   B   0.555572616271243   0.111211971152316   0.624820435408194   1.0000000
B2   B   0.888827028417184   0.111061274113230   0.625019123207297   1.0000000


