data_1
_audit_creation_method   'vasp2cif'
_cell_length_a    14.93631414619966
_cell_length_b    14.936314146199727
_cell_length_c    13.341276283792837
_cell_angle_alpha    90.0
_cell_angle_beta    90.0
_cell_angle_gamma    119.99999999999984

_symmetry_space_group_name_H-M    'P 1'
loop_
_atom_site_label
_atom_site_type_symbol
_atom_site_fract_x
_atom_site_fract_y
_atom_site_fract_z
_atom_site_occupancy
Sn2   Sn   0.487631134601890   0.410482233967618   0.375000000000000   1.0000000
N2   N   0.111070928261957   0.055512633003391   0.124847294809998   1.0000000
N2   N   0.611104400746141   0.555592981048047   0.125177098367504   1.0000000
N2   N   0.444405110413296   0.055509022181431   0.124879610230495   1.0000000
N2   N   0.944408350762374   0.555540998493012   0.125248836139764   1.0000000
N2   N   0.777750314165690   0.055541823749512   0.125205715079330   1.0000000
N2   N   0.111071516520193   0.722202424926771   0.624770042490121   1.0000000
N2   N   0.444405110413296   0.722229421565214   0.625120389769509   1.0000000
N2   N   0.277732012398172   0.222178062928456   0.624675146235535   1.0000000
N2   N   0.777741912349697   0.722201696822590   0.624884961754332   1.0000000
N2   N   0.611069548580330   0.222181111067786   0.625087003071647   1.0000000
N2   N   0.944419021930127   0.222215583537552   0.624938265418187   1.0000000
N2   N   0.277736795469457   0.722215026244247   0.125085412133710   1.0000000
N2   N   0.111090187014908   0.222211760174119   0.124889494288356   1.0000000
N2   N   0.444420454470698   0.222184013417691   0.125478364808846   1.0000000
N2   N   0.611069548580330   0.722221770845851   0.124912996928379   1.0000000
N2   N   0.944408350762374   0.722200685602706   0.125248836139764   1.0000000
N2   N   0.777743668146974   0.222208327585412   0.125108960700670   1.0000000
N2   N   0.111068700597825   0.888851065060515   0.624922457043662   1.0000000
N2   N   0.444405914910395   0.888869624121853   0.624923519182143   1.0000000
N2   N   0.277732012398172   0.388887282803046   0.624675146235535   1.0000000
N2   N   0.611104400746141   0.388844753031438   0.624822901632472   1.0000000
N2   N   0.777743668146974   0.888868673894925   0.624891039299326   1.0000000
N2   N   0.944410275849389   0.388882654176520   0.624845622314789   1.0000000
N2   N   0.111070928261957   0.388891628591901   0.124847294809998   1.0000000
N2   N   0.277736795469457   0.888855102558562   0.125085412133710   1.0000000
N2   N   0.611072988894346   0.888880641992850   0.125060417294443   1.0000000
N2   N   0.444387818016604   0.388860575674970   0.127606955547585   1.0000000
N2   N   0.944410275849389   0.888860955006214   0.125154377685200   1.0000000
N2   N   0.777741912349697   0.388873548860435   0.125115038245670   1.0000000
N2   N   0.277739968903004   0.555566224397993   0.625099439101796   1.0000000
N2   N   0.111070928261957   0.055512633003391   0.625152705190028   1.0000000
N2   N   0.611104400746141   0.555592981048047   0.624822901632472   1.0000000
N2   N   0.444405110413296   0.055509022181431   0.625120389769509   1.0000000
N2   N   0.944408350762374   0.555540998493012   0.624751163860230   1.0000000
N2   N   0.111068700597825   0.555550968870660   0.125077542956344   1.0000000
N2   N   0.777750314165690   0.055541823749512   0.624794284920663   1.0000000
N2   N   0.277739968903004   0.055507077838348   0.124900560898211   1.0000000
N2   N   0.444420454470698   0.555569774386341   0.125478364808846   1.0000000
N2   N   0.777746287261862   0.555539810297605   0.125228054058035   1.0000000
N2   N   0.611072988894346   0.055525680234821   0.125060417294443   1.0000000
N2   N   0.444420454470698   0.555569774386341   0.624521635191160   1.0000000
N2   N   0.944419021930127   0.055536771725895   0.125061734581801   1.0000000
N2   N   0.277736795469458   0.722215026244247   0.624914587866302   1.0000000
N2   N   0.111090187014908   0.222211760174119   0.625110505711650   1.0000000
N2   N   0.444420454470698   0.222184013417691   0.624521635191160   1.0000000
N2   N   0.611069548580330   0.722221770845851   0.625087003071647   1.0000000
N2   N   0.944408350762374   0.722200685602706   0.624751163860230   1.0000000
N2   N   0.777743668146974   0.222208327585412   0.624891039299326   1.0000000
N2   N   0.111071516520193   0.722202424926771   0.125229957509887   1.0000000
N2   N   0.444405110413296   0.722229421565214   0.124879610230495   1.0000000
N2   N   0.277732012398172   0.222178062928456   0.125324853764444   1.0000000
N2   N   0.777741912349697   0.722201696822590   0.125115038245670   1.0000000
N2   N   0.611069548580330   0.222181111067786   0.124912996928379   1.0000000
N2   N   0.944419021930127   0.222215583537552   0.125061734581801   1.0000000
N2   N   0.111070928261957   0.388891628591901   0.625152705190028   1.0000000
N2   N   0.277736795469457   0.888855102558562   0.624914587866302   1.0000000
N2   N   0.611072988894346   0.888880641992850   0.624939582705567   1.0000000
N2   N   0.444387818016604   0.388860575674970   0.622393044452431   1.0000000
N2   N   0.944410275849389   0.888860955006214   0.624845622314789   1.0000000
N2   N   0.111068700597825   0.888851065060515   0.125077542956344   1.0000000
N2   N   0.777741912349697   0.388873548860435   0.624884961754332   1.0000000
N2   N   0.444405914910395   0.888869624121853   0.125076480817881   1.0000000
N2   N   0.277732012398172   0.388887282803046   0.125324853764444   1.0000000
N2   N   0.277739968903004   0.555566224397993   0.124900560898211   1.0000000
N2   N   0.611104400746141   0.388844753031438   0.125177098367504   1.0000000
N2   N   0.777743668146974   0.888868673894925   0.125108960700670   1.0000000
N2   N   0.944410275849389   0.388882654176520   0.125154377685200   1.0000000
N2   N   0.111068700597825   0.555550968870660   0.624922457043662   1.0000000
N2   N   0.277739968903004   0.055507077838348   0.625099439101796   1.0000000
N2   N   0.777746287261862   0.555539810297605   0.624771945941972   1.0000000
N2   N   0.611072988894346   0.055525680234821   0.624939582705567   1.0000000
N2   N   0.944419021930127   0.055536771725895   0.624938265418187   1.0000000
N2   N   0.057864979135025   0.112349046404268   0.375000000000000   1.0000000
N2   N   0.555487665036227   0.616481020619156   0.375000000000000   1.0000000
N2   N   0.388142689892994   0.104522109240180   0.375000000000000   1.0000000
N2   N   0.889406679688856   0.611370006511117   0.375000000000000   1.0000000
N2   N   0.724271967134100   0.111548180349727   0.375000000000000   1.0000000
N2   N   0.055521995395678   0.777763289321365   0.875000000000000   1.0000000
N2   N   0.388864949021567   0.777764713598411   0.875000000000000   1.0000000
N2   N   0.222188418971178   0.277760876152252   0.875000000000000   1.0000000
N2   N   0.722196007447979   0.777766997319356   0.875000000000000   1.0000000
N2   N   0.555525470985578   0.277763340355137   0.875000000000000   1.0000000
N2   N   0.888863143554038   0.277764761597290   0.875000000000000   1.0000000
N2   N   0.221518036588773   0.777425684961057   0.375000000000000   1.0000000
N2   N   0.057864979135025   0.278849266064084   0.375000000000000   1.0000000
N2   N   0.387113486674325   0.264982393311503   0.375000000000000   1.0000000
N2   N   0.556590606631649   0.780940728031828   0.375000000000000   1.0000000
N2   N   0.890105626497282   0.778854074709819   0.375000000000000   1.0000000
N2   N   0.724043490548244   0.277326851292768   0.375000000000000   1.0000000
N2   N   0.055524090498653   0.944430948354533   0.875000000000000   1.0000000
N2   N   0.388864949021567   0.944433568756496   0.875000000000000   1.0000000
N2   N   0.222189941321481   0.444423578995829   0.875000000000000   1.0000000
N2   N   0.555518277883865   0.444425805608600   0.875000000000000   1.0000000
N2   N   0.722197304347660   0.944433218333228   0.875000000000000   1.0000000
N2   N   0.888860327850670   0.444427255373123   0.875000000000000   1.0000000
N2   N   0.056095295226417   0.445068704370763   0.375000000000000   1.0000000
N2   N   0.221498342851842   0.942602250117471   0.375000000000000   1.0000000
N2   N   0.556716853019949   0.945025093176639   0.375000000000000   1.0000000
N2   N   0.387113486674325   0.455464426696157   0.375000000000000   1.0000000
N2   N   0.890850143861062   0.945968751017907   0.375000000000000   1.0000000
N2   N   0.724761292731470   0.445245683605045   0.375000000000000   1.0000000
N2   N   0.222191317311753   0.611090609182090   0.875000000000000   1.0000000
N2   N   0.055521428875206   0.111094398336844   0.875000000000000   1.0000000
N2   N   0.555525470985578   0.611095463963790   0.875000000000000   1.0000000
N2   N   0.388863507176303   0.111102507286421   0.875000000000000   1.0000000
N2   N   0.888856248649495   0.611094790991430   0.875000000000000   1.0000000
N2   N   0.055252078468467   0.611177239745799   0.375000000000000   1.0000000
N2   N   0.722197304347660   0.111097419347732   0.875000000000000   1.0000000
N2   N   0.222178705451587   0.109126343353406   0.375000000000000   1.0000000
N2   N   0.388142689892994   0.616953913986167   0.375000000000000   1.0000000
N2   N   0.724761292731463   0.612848942459743   0.375000000000000   1.0000000
N2   N   0.556590606631649   0.108983211933180   0.375000000000000   1.0000000
N2   N   0.388863507176303   0.611094333223211   0.875000000000000   1.0000000
N2   N   0.891247667062348   0.112290500197841   0.375000000000000   1.0000000
N2   N   0.222193752668943   0.777763543001142   0.875000000000000   1.0000000
N2   N   0.055521428875206   0.277760363871695   0.875000000000000   1.0000000
N2   N   0.388863196674565   0.277770382741621   0.875000000000000   1.0000000
N2   N   0.555530701661622   0.777767018463851   0.875000000000000   1.0000000
N2   N   0.888860327850670   0.777766405810868   0.875000000000000   1.0000000
N2   N   0.722196007447979   0.277762343461955   0.875000000000000   1.0000000
N2   N   0.055252078468467   0.777408172055989   0.375000000000000   1.0000000
N2   N   0.388743581815834   0.779518304340783   0.375000000000000   1.0000000
N2   N   0.225583006234172   0.279458169783755   0.375000000000000   1.0000000
N2   N   0.724043490548244   0.780049972588798   0.375000000000000   1.0000000
N2   N   0.555487665036227   0.272339977750397   0.375000000000000   1.0000000
N2   N   0.890850143861062   0.278214726176494   0.375000000000000   1.0000000
N2   N   0.055524090498653   0.444426475477460   0.875000000000000   1.0000000
N2   N   0.222191317311753   0.944434041463012   0.875000000000000   1.0000000
N2   N   0.555530635223278   0.944431984278317   0.875000000000000   1.0000000
N2   N   0.388863196674565   0.444426147266286   0.875000000000000   1.0000000
N2   N   0.888863143554038   0.944431715290080   0.875000000000000   1.0000000
N2   N   0.056095295226417   0.944359924188981   0.375000000000000   1.0000000
N2   N   0.722190364771049   0.444427815590973   0.875000000000000   1.0000000
N2   N   0.388743581815834   0.942558610808374   0.375000000000000   1.0000000
N2   N   0.222178705451587   0.446385695431521   0.375000000000000   1.0000000
N2   N   0.221498342851842   0.612229426067706   0.375000000000000   1.0000000
N2   N   0.724271967134107   0.946057120117709   0.375000000000000   1.0000000
N2   N   0.890105626497289   0.444584885120787   0.375000000000000   1.0000000
N2   N   0.055521995395678   0.611092039407666   0.875000000000000   1.0000000
N2   N   0.222189941321481   0.111099695658992   0.875000000000000   1.0000000
N2   N   0.722190364771049   0.611095882513428   0.875000000000000   1.0000000
N2   N   0.555530701661622   0.111097016531108   0.875000000000000   1.0000000
N2   N   0.888861972132726   0.111097652733024   0.875000000000000   1.0000000
B2   B   0.111662995719370   0.055175093301476   0.375000000000000   1.0000000
B2   B   0.618965338334560   0.571962171600811   0.375000000000000   1.0000000
B2   B   0.445184788843056   0.051894944023918   0.375000000000000   1.0000000
B2   B   0.945036894360040   0.555645254950781   0.375000000000000   1.0000000
B2   B   0.780382984247524   0.056858158790432   0.375000000000000   1.0000000
B2   B   0.111089683552074   0.722211508442686   0.875000000000000   1.0000000
B2   B   0.444414363854447   0.722235534810549   0.875000000000000   1.0000000
B2   B   0.277678253111592   0.222163782578938   0.875000000000000   1.0000000
B2   B   0.777789798524900   0.722266013541033   0.875000000000000   1.0000000
B2   B   0.611103914564242   0.222168191827267   0.875000000000000   1.0000000
B2   B   0.944409069791804   0.222195617591855   0.875000000000000   1.0000000
B2   B   0.277484852401169   0.722982702365927   0.375000000000000   1.0000000
B2   B   0.113925468127645   0.223629400730487   0.375000000000000   1.0000000
B2   B   0.442937121873516   0.212522978456671   0.375000000000000   1.0000000
B2   B   0.613454886819626   0.728131380364218   0.375000000000000   1.0000000
B2   B   0.945036894360040   0.722724972742584   0.375000000000000   1.0000000
B2   B   0.780223508147764   0.222156411657871   0.375000000000000   1.0000000
B2   B   0.111078256309226   0.888876386615586   0.875000000000000   1.0000000
B2   B   0.444421189443632   0.888877261388476   0.875000000000000   1.0000000
B2   B   0.277678253111592   0.388847803866000   0.875000000000000   1.0000000
B2   B   0.611104994839827   0.388851288792354   0.875000000000000   1.0000000
B2   B   0.777776644697918   0.888921819828442   0.875000000000000   1.0000000
B2   B   0.944429938115043   0.388859501564263   0.875000000000000   1.0000000
B2   B   0.111662995719370   0.389821235751225   0.375000000000000   1.0000000
B2   B   0.277484852401169   0.887835483368574   0.375000000000000   1.0000000
B2   B   0.613288080717641   0.891403112830443   0.375000000000000   1.0000000
B2   B   0.945760750013093   0.890112079466049   0.375000000000000   1.0000000
B2   B   0.780494050588459   0.388121521772709   0.375000000000000   1.0000000
B2   B   0.277718356828063   0.555537775396009   0.875000000000000   1.0000000
B2   B   0.111050392192826   0.055528745833048   0.875000000000000   1.0000000
B2   B   0.611104994839827   0.555587039380812   0.875000000000000   1.0000000
B2   B   0.444414363854447   0.055512162377244   0.875000000000000   1.0000000
B2   B   0.944444541413257   0.555542881340416   0.875000000000000   1.0000000
B2   B   0.110855356635837   0.555966253324429   0.375000000000000   1.0000000
B2   B   0.777766918351287   0.055550125842308   0.875000000000000   1.0000000
B2   B   0.277002455709571   0.052694733713481   0.375000000000000   1.0000000
B2   B   0.442937121873516   0.563747476750177   0.375000000000000   1.0000000
B2   B   0.779989889525352   0.556661611429353   0.375000000000000   1.0000000
B2   B   0.613288080717641   0.055218301220534   0.375000000000000   1.0000000
B2   B   0.444394758509571   0.555570559722901   0.875000000000000   1.0000000
B2   B   0.946925006322802   0.057145265277390   0.375000000000000   1.0000000
B2   B   0.277744387720194   0.722209870851897   0.875000000000000   1.0000000
B2   B   0.111031211470024   0.222182272401674   0.875000000000000   1.0000000
B2   B   0.444394758509571   0.222157532119988   0.875000000000000   1.0000000
B2   B   0.611103914564242   0.722269056070310   0.875000000000000   1.0000000
B2   B   0.944444541413257   0.722234993406164   0.875000000000000   1.0000000
B2   B   0.777776644697918   0.222188158202812   0.875000000000000   1.0000000
B2   B   0.110764663113660   0.722048998223512   0.375000000000000   1.0000000
B2   B   0.445184788843057   0.726623178152459   0.375000000000000   1.0000000
B2   B   0.277847704993430   0.219910838963447   0.375000000000000   1.0000000
B2   B   0.780494050588459   0.725705862149052   0.375000000000000   1.0000000
B2   B   0.613454886819626   0.218656839788745   0.375000000000000   1.0000000
B2   B   0.946925006322803   0.223113074378770   0.375000000000000   1.0000000
B2   B   0.111050392192826   0.388854979693114   0.875000000000000   1.0000000
B2   B   0.277744387720194   0.888867850201628   0.875000000000000   1.0000000
B2   B   0.611102613493576   0.888905429402125   0.875000000000000   1.0000000
B2   B   0.444375984378141   0.388854658855745   0.875000000000000   1.0000000
B2   B   0.944429938115043   0.888903769884097   0.875000000000000   1.0000000
B2   B   0.110855356635837   0.888222436644738   0.375000000000000   1.0000000
B2   B   0.777789798524886   0.388857118317163   0.875000000000000   1.0000000
B2   B   0.445377423795989   0.889355378564664   0.375000000000000   1.0000000
B2   B   0.277847704993430   0.391270199363326   0.375000000000000   1.0000000
B2   B   0.277002455709571   0.557641055329425   0.375000000000000   1.0000000
B2   B   0.618965338334560   0.380336500067076   0.375000000000000   1.0000000
B2   B   0.780223508147764   0.891400429823222   0.375000000000000   1.0000000
B2   B   0.945760750013093   0.388982003880384   0.375000000000000   1.0000000
B2   B   0.111078256309226   0.555535203026963   0.875000000000000   1.0000000
B2   B   0.277718356828063   0.055513914765374   0.875000000000000   1.0000000
B2   B   0.777792494228532   0.555562913780919   0.875000000000000   1.0000000
B2   B   0.611102613493576   0.055530517424807   0.875000000000000   1.0000000
B2   B   0.944409069791804   0.055546785533296   0.875000000000000   1.0000000
B2   B   0.055500255925792   0.111067407600447   0.124758690163536   1.0000000
B2   B   0.555499224928871   0.611288896440155   0.124657655816820   1.0000000
B2   B   0.388736230831513   0.110853854743555   0.124784257362619   1.0000000
B2   B   0.889033756133841   0.611183544733593   0.124892828883756   1.0000000
B2   B   0.722196873681814   0.111055769486263   0.124940963290598   1.0000000
B2   B   0.055592485751933   0.777787615277656   0.625006951531562   1.0000000
B2   B   0.388798085366125   0.777796950858692   0.625186804884915   1.0000000
B2   B   0.222052526885537   0.277692930109438   0.624979502924840   1.0000000
B2   B   0.722246673935983   0.777895053454208   0.625335646913765   1.0000000
B2   B   0.555499224928871   0.277543661822040   0.625342344183189   1.0000000
B2   B   0.888899166788028   0.277754136484965   0.625056382571900   1.0000000
B2   B   0.222183012416475   0.777758172874921   0.124987066542411   1.0000000
B2   B   0.055500255925792   0.277766181658686   0.124758690163536   1.0000000
B2   B   0.388560858615649   0.277347357515486   0.125673435272702   1.0000000
B2   B   0.555481275722952   0.777870244619239   0.124663350492744   1.0000000
B2   B   0.888980865572352   0.777858919585467   0.124890065956462   1.0000000
B2   B   0.722246673935983   0.277684953815110   0.124664353086245   1.0000000
B2   B   0.055537354296467   0.944411378069766   0.625156681228888   1.0000000
B2   B   0.388798085366125   0.944334467840753   0.625186804884915   1.0000000
B2   B   0.222077660347138   0.444481134888397   0.625204720683755   1.0000000
B2   B   0.555747647614764   0.444540490474046   0.624582110670730   1.0000000
B2   B   0.722196873681814   0.944474437528879   0.625059036709403   1.0000000
B2   B   0.888980865572352   0.444455279320215   0.625109934043531   1.0000000
B2   B   0.055537354296467   0.444459309560018   0.124843318771116   1.0000000
B2   B   0.222147968098318   0.944335753405848   0.124811770114896   1.0000000
B2   B   0.555490855247060   0.944412094290191   0.124896147638419   1.0000000
B2   B   0.388560858615649   0.444546834433489   0.125673435272702   1.0000000
B2   B   0.888899166788028   0.944478363636381   0.124943617428074   1.0000000
B2   B   0.722396307180605   0.444471864029763   0.124590263591731   1.0000000
B2   B   0.222147968098318   0.611145548025829   0.625188229885103   1.0000000
B2   B   0.055500255925792   0.111067407600447   0.625241309836480   1.0000000
B2   B   0.555499224928871   0.611288896440155   0.625342344183189   1.0000000
B2   B   0.388736230831513   0.110853854743555   0.625215742637387   1.0000000
B2   B   0.889033756133841   0.611183544733593   0.625107171116255   1.0000000
B2   B   0.055592485751933   0.611138203807610   0.124993048468434   1.0000000
B2   B   0.722196873681814   0.111055769486263   0.625059036709403   1.0000000
B2   B   0.222077660347138   0.110929858792076   0.124795279316241   1.0000000
B2   B   0.388736230831513   0.611215709421300   0.124784257362619   1.0000000
B2   B   0.722396307180612   0.611257776484205   0.124590263591731   1.0000000
B2   B   0.555481275722952   0.110944364437034   0.124663350492744   1.0000000
B2   B   0.388736230831513   0.611215709421300   0.625215742637387   1.0000000
B2   B   0.888874021179229   0.111103677256288   0.124975971675179   1.0000000
B2   B   0.222183012416475   0.777758172874921   0.625012933457595   1.0000000
B2   B   0.055500255925792   0.277766181658686   0.625241309836480   1.0000000
B2   B   0.388560858615649   0.277347357515486   0.624326564727301   1.0000000
B2   B   0.555481275722952   0.777870244619239   0.625336649507265   1.0000000
B2   B   0.888980865572352   0.777858919585467   0.625109934043531   1.0000000
B2   B   0.722246673935983   0.277684953815110   0.625335646913765   1.0000000
B2   B   0.055592485751933   0.777787615277656   0.124993048468434   1.0000000
B2   B   0.388798085366125   0.777796950858692   0.124813195115071   1.0000000
B2   B   0.222052526885537   0.277692930109438   0.125020497075167   1.0000000
B2   B   0.722246673935983   0.777895053454208   0.124664353086245   1.0000000
B2   B   0.555499224928871   0.277543661822040   0.124657655816820   1.0000000
B2   B   0.888899166788028   0.277754136484965   0.124943617428074   1.0000000
B2   B   0.055537354296467   0.444459309560018   0.625156681228888   1.0000000
B2   B   0.222147968098318   0.944335753405848   0.625188229885103   1.0000000
B2   B   0.555490855247060   0.944412094290191   0.625103852361593   1.0000000
B2   B   0.388560858615649   0.444546834433489   0.624326564727301   1.0000000
B2   B   0.888899166788028   0.944478363636381   0.625056382571900   1.0000000
B2   B   0.055537354296467   0.944411378069766   0.124843318771116   1.0000000
B2   B   0.722396307180612   0.444471864029763   0.625409736408280   1.0000000
B2   B   0.388798085366125   0.944334467840753   0.124813195115071   1.0000000
B2   B   0.222077660347138   0.444481134888397   0.124795279316241   1.0000000
B2   B   0.222147968098318   0.611145548025829   0.124811770114896   1.0000000
B2   B   0.555747647614764   0.444540490474046   0.125417889329264   1.0000000
B2   B   0.722196873681814   0.944474437528879   0.124940963290598   1.0000000
B2   B   0.888980865572352   0.444455279320215   0.124890065956462   1.0000000
B2   B   0.055592485751933   0.611138203807610   0.625006951531562   1.0000000
B2   B   0.222077660347138   0.110929858792076   0.625204720683755   1.0000000
B2   B   0.722396307180612   0.611257776484205   0.625409736408280   1.0000000
B2   B   0.555481275722952   0.110944364437034   0.625336649507265   1.0000000
B2   B   0.888874021179229   0.111103677256288   0.625024028324837   1.0000000


