data_1
_audit_creation_method   'vasp2cif'
_cell_length_a    14.93631414619966
_cell_length_b    14.936314146199727
_cell_length_c    13.341276283792837
_cell_angle_alpha    90.0
_cell_angle_beta    90.0
_cell_angle_gamma    119.99999999999984

_symmetry_space_group_name_H-M    'P 1'
loop_
_atom_site_label
_atom_site_type_symbol
_atom_site_fract_x
_atom_site_fract_y
_atom_site_fract_z
_atom_site_occupancy
N2   N   0.112887267925947   0.056882676224915   0.125000000000000   1.0000000
N2   N   0.606524073978964   0.549233472219516   0.125000000000000   1.0000000
N2   N   0.444099163263239   0.056179238216127   0.125000000000000   1.0000000
N2   N   0.946646206214633   0.556082540739687   0.125000000000000   1.0000000
N2   N   0.777856327309690   0.055580019533249   0.125000000000000   1.0000000
N2   N   0.111134873008843   0.722224890118802   0.625000000000000   1.0000000
N2   N   0.444437265800099   0.722225334708697   0.625000000000000   1.0000000
N2   N   0.277762054811478   0.222211302614328   0.625000000000000   1.0000000
N2   N   0.777781116229583   0.722240410765846   0.625000000000000   1.0000000
N2   N   0.611105088811584   0.222192208201349   0.625000000000000   1.0000000
N2   N   0.944447122239128   0.222219992303608   0.625000000000000   1.0000000
N2   N   0.278108328678381   0.722580158295702   0.125000000000000   1.0000000
N2   N   0.113522341242642   0.222877818233534   0.125000000000000   1.0000000
N2   N   0.440747458717214   0.222346992315420   0.125000000000000   1.0000000
N2   N   0.610031797104688   0.720178464476475   0.125000000000000   1.0000000
N2   N   0.946740993380100   0.724035360889645   0.125000000000000   1.0000000
N2   N   0.777180783755229   0.221526087448676   0.125000000000000   1.0000000
N2   N   0.111121372083766   0.888892868641442   0.625000000000000   1.0000000
N2   N   0.444443483663932   0.888883694843758   0.625000000000000   1.0000000
N2   N   0.277764794423976   0.388889679197957   0.625000000000000   1.0000000
N2   N   0.611101552874643   0.388870062847443   0.625000000000000   1.0000000
N2   N   0.777781506769016   0.888905313161121   0.625000000000000   1.0000000
N2   N   0.944460279635160   0.388886011485220   0.625000000000000   1.0000000
N2   N   0.110871831702387   0.388874129940049   0.125000000000000   1.0000000
N2   N   0.278178930507543   0.889213667257996   0.125000000000000   1.0000000
N2   N   0.610873919462791   0.888562145278523   0.125000000000000   1.0000000
N2   N   0.944550238359333   0.888790546092412   0.125000000000000   1.0000000
N2   N   0.776149210575375   0.386731969545781   0.125000000000000   1.0000000
N2   N   0.277772263122386   0.555558876508326   0.625000000000000   1.0000000
N2   N   0.111106916786008   0.055551829336920   0.625000000000000   1.0000000
N2   N   0.611094410901921   0.555559245109729   0.625000000000000   1.0000000
N2   N   0.444437017969259   0.055533312556229   0.625000000000000   1.0000000
N2   N   0.944470058269848   0.555555357609229   0.625000000000000   1.0000000
N2   N   0.111879844161421   0.555609608393511   0.125000000000000   1.0000000
N2   N   0.777780064098292   0.055557723014572   0.625000000000000   1.0000000
N2   N   0.277763290338029   0.055330486751864   0.125000000000000   1.0000000
N2   N   0.442773003281350   0.555659855805802   0.125000000000000   1.0000000
N2   N   0.610703033317550   0.055854082757679   0.125000000000000   1.0000000
N2   N   0.444428293880904   0.555560366648406   0.625000000000000   1.0000000
N2   N   0.945265078858423   0.055876966140595   0.125000000000000   1.0000000
N2   N   0.277783961475626   0.722220589540674   0.625000000000000   1.0000000
N2   N   0.111102046155083   0.222217962056173   0.625000000000000   1.0000000
N2   N   0.444429640997066   0.222197078575140   0.625000000000000   1.0000000
N2   N   0.611100713024964   0.722237474196100   0.625000000000000   1.0000000
N2   N   0.944465650162549   0.722234879167115   0.625000000000000   1.0000000
N2   N   0.777783188435275   0.222208587889598   0.625000000000000   1.0000000
N2   N   0.112016444502112   0.722797036420420   0.125000000000000   1.0000000
N2   N   0.444241844021379   0.722612712030237   0.125000000000000   1.0000000
N2   N   0.284288626415988   0.224892605160625   0.125000000000000   1.0000000
N2   N   0.775856262628303   0.722031645375153   0.125000000000000   1.0000000
N2   N   0.609110600777325   0.222900963735782   0.125000000000000   1.0000000
N2   N   0.945003588587268   0.222340449789348   0.125000000000000   1.0000000
N2   N   0.111112005564756   0.388888741112451   0.625000000000000   1.0000000
N2   N   0.277783546065955   0.888883093774618   0.625000000000000   1.0000000
N2   N   0.611107449021544   0.888894757934877   0.625000000000000   1.0000000
N2   N   0.444423919403514   0.388879754019028   0.625000000000000   1.0000000
N2   N   0.944454834142896   0.888901925428907   0.625000000000000   1.0000000
N2   N   0.112116092497330   0.889936339088840   0.125000000000000   1.0000000
N2   N   0.777791013924686   0.388876470365351   0.625000000000000   1.0000000
N2   N   0.444511580583008   0.889380535691666   0.125000000000000   1.0000000
N2   N   0.277593420471278   0.389588079628742   0.125000000000000   1.0000000
N2   N   0.277503491080988   0.555791080851612   0.125000000000000   1.0000000
N2   N   0.608092559321247   0.389365805831756   0.125000000000000   1.0000000
N2   N   0.777548224702355   0.889114052071058   0.125000000000000   1.0000000
N2   N   0.943957621432669   0.388859121146502   0.125000000000000   1.0000000
N2   N   0.111124569185198   0.555552875491051   0.625000000000000   1.0000000
N2   N   0.277769083925139   0.055541304269854   0.625000000000000   1.0000000
N2   N   0.777785964697706   0.555557070875668   0.625000000000000   1.0000000
N2   N   0.611106458659730   0.055540600365209   0.625000000000000   1.0000000
N2   N   0.944445507130414   0.055557621490985   0.625000000000000   1.0000000
N2   N   0.055569092146856   0.111137607918731   0.375206380322756   1.0000000
N2   N   0.555547802102730   0.611123099446197   0.375408835806870   1.0000000
N2   N   0.388894817121907   0.111118921253964   0.375095109630091   1.0000000
N2   N   0.888911540524063   0.611137204101336   0.375327965806958   1.0000000
N2   N   0.722236731366453   0.111100061465576   0.375305181018682   1.0000000
N2   N   0.055591973090648   0.777826147925297   0.874576163232829   1.0000000
N2   N   0.388914842446460   0.777802682463748   0.874693944496856   1.0000000
N2   N   0.222246275810272   0.277789878175590   0.874807004628500   1.0000000
N2   N   0.722230452221998   0.777832146916167   0.874627097997208   1.0000000
N2   N   0.555534167446595   0.277775362489782   0.874845331590632   1.0000000
N2   N   0.888908292113628   0.277765937868147   0.874731378262211   1.0000000
N2   N   0.222254806308116   0.777807387092465   0.375368001470751   1.0000000
N2   N   0.055572987711337   0.277772550985601   0.375251960919434   1.0000000
N2   N   0.388893848795986   0.277787161014085   0.375616924319087   1.0000000
N2   N   0.555572153257227   0.777803671314796   0.375254367598980   1.0000000
N2   N   0.888893425875420   0.777805099147077   0.375249209157671   1.0000000
N2   N   0.722227722684100   0.277746275450600   0.375306085204405   1.0000000
N2   N   0.055566338438104   0.944485689990694   0.874777087585195   1.0000000
N2   N   0.388914958709511   0.944463014412398   0.874745568255839   1.0000000
N2   N   0.222229868931307   0.444443996269005   0.874728490481214   1.0000000
N2   N   0.555572068316199   0.444471994619333   0.873767122260695   1.0000000
N2   N   0.722241898937207   0.944478595185946   0.874684725937264   1.0000000
N2   N   0.888890464172267   0.444447652668050   0.874772648069105   1.0000000
N2   N   0.055569871366496   0.444434768569997   0.375275282820981   1.0000000
N2   N   0.222249598518180   0.944482820463825   0.375255997488690   1.0000000
N2   N   0.555584658250008   0.944461893207210   0.375268315654103   1.0000000
N2   N   0.388894265582562   0.444463912883254   0.375649221197031   1.0000000
N2   N   0.888909902088712   0.944489086529433   0.375281807842560   1.0000000
N2   N   0.722208077346093   0.444436009754215   0.375308994118202   1.0000000
N2   N   0.222247362900533   0.611122853244949   0.874660555721080   1.0000000
N2   N   0.055569092146856   0.111137607918731   0.874793619677246   1.0000000
N2   N   0.555547802102730   0.611123099446197   0.874591164193132   1.0000000
N2   N   0.388894817121907   0.111118921253965   0.874904890369908   1.0000000
N2   N   0.888911540524063   0.611137204101336   0.874672034193044   1.0000000
N2   N   0.055591451246228   0.611124688482958   0.375440003735429   1.0000000
N2   N   0.722236731366453   0.111100061465576   0.874694818981314   1.0000000
N2   N   0.222229564815524   0.111142737825094   0.375065858134360   1.0000000
N2   N   0.388897101271958   0.611134548767847   0.375310589187958   1.0000000
N2   N   0.722212153342129   0.611143416624974   0.375497428971512   1.0000000
N2   N   0.555568414707108   0.111109596628609   0.375158755444487   1.0000000
N2   N   0.388897101271958   0.611134548767847   0.874689410812045   1.0000000
N2   N   0.888912715089381   0.111124578792402   0.375264148301932   1.0000000
N2   N   0.222254806308116   0.777807387092465   0.874631998529247   1.0000000
N2   N   0.055572987711337   0.277772550985601   0.874748039080557   1.0000000
N2   N   0.388893848795986   0.277787161014087   0.874383075680909   1.0000000
N2   N   0.555572153257227   0.777803671314796   0.874745632401020   1.0000000
N2   N   0.888893425875420   0.777805099147080   0.874750790842325   1.0000000
N2   N   0.722227722684100   0.277746275450600   0.874693914795595   1.0000000
N2   N   0.055591973090648   0.777826147925297   0.375423836767170   1.0000000
N2   N   0.388914842446460   0.777802682463748   0.375306055503147   1.0000000
N2   N   0.222246275810272   0.277789878175590   0.375192995371499   1.0000000
N2   N   0.722230452221998   0.777832146916167   0.375372902002794   1.0000000
N2   N   0.555534167446595   0.277775362489782   0.375154668409369   1.0000000
N2   N   0.888908292113628   0.277765937868147   0.375268621737790   1.0000000
N2   N   0.055569871366497   0.444434768569997   0.874724717179015   1.0000000
N2   N   0.222249598518180   0.944482820463825   0.874744002511309   1.0000000
N2   N   0.555584658250008   0.944461893207210   0.874731684345889   1.0000000
N2   N   0.388894265582562   0.444463912883254   0.874350778802972   1.0000000
N2   N   0.888909902088712   0.944489086529433   0.874718192157453   1.0000000
N2   N   0.055566338438104   0.944485689990694   0.375222912414806   1.0000000
N2   N   0.722208077346093   0.444436009754215   0.874691005881799   1.0000000
N2   N   0.388914958709511   0.944463014412398   0.375254431744165   1.0000000
N2   N   0.222229868931307   0.444443996269005   0.375271509518791   1.0000000
N2   N   0.222247362900533   0.611122853244949   0.375339444278925   1.0000000
N2   N   0.555572068316199   0.444471994619333   0.376232877739307   1.0000000
N2   N   0.722241898937207   0.944478595185946   0.375315274062732   1.0000000
N2   N   0.888890464172267   0.444447652668050   0.375227351930903   1.0000000
N2   N   0.055591451246228   0.611124688482958   0.874559996264569   1.0000000
N2   N   0.222229564815524   0.111142737825094   0.874934141865643   1.0000000
N2   N   0.722212153342129   0.611143416624974   0.874502571028493   1.0000000
N2   N   0.555568414707108   0.111109596628609   0.874841244555518   1.0000000
N2   N   0.888912715089381   0.111124578792402   0.874735851698073   1.0000000
B2   B   0.111003429486183   0.055529415101753   0.375513978027384   1.0000000
B2   B   0.611079746716871   0.555653701181604   0.376522505108897   1.0000000
B2   B   0.444461705986685   0.055441755360598   0.375558827303085   1.0000000
B2   B   0.944592068355303   0.555582407620689   0.375706092196009   1.0000000
B2   B   0.777802539776554   0.055549876584165   0.375496382460798   1.0000000
B2   B   0.111181840594734   0.722252832434472   0.874308042621353   1.0000000
B2   B   0.444452584132862   0.722287851241119   0.874486185510337   1.0000000
B2   B   0.277665268940181   0.222190366470726   0.873932231551458   1.0000000
B2   B   0.777837705088189   0.722427603722905   0.874191236667684   1.0000000
B2   B   0.611185279453251   0.222105570817894   0.874278155263631   1.0000000
B2   B   0.944445567468383   0.222183055118171   0.874520861109853   1.0000000
B2   B   0.277811580124521   0.722236755542390   0.375535321595785   1.0000000
B2   B   0.111003746056861   0.222193056567288   0.375558382049272   1.0000000
B2   B   0.444385057005614   0.222127085468194   0.376198108348718   1.0000000
B2   B   0.611142269964698   0.722378405295943   0.375703701416324   1.0000000
B2   B   0.944563724232712   0.722367018047144   0.375704906469489   1.0000000
B2   B   0.777839815988412   0.222135822725151   0.375557802769631   1.0000000
B2   B   0.111108243551959   0.888904143260142   0.874408588989833   1.0000000
B2   B   0.444484618793981   0.888870759035344   0.874492788290768   1.0000000
B2   B   0.277701155251893   0.388941579645979   0.874207751870574   1.0000000
B2   B   0.611097669397386   0.388898207157856   0.873502803833403   1.0000000
B2   B   0.777809231733076   0.889005163637532   0.874454780055212   1.0000000
B2   B   0.944521015429176   0.388829973629540   0.874456423317446   1.0000000
B2   B   0.111090595277248   0.388876122434514   0.375507371309509   1.0000000
B2   B   0.277799773354956   0.888856453634426   0.375562514843480   1.0000000
B2   B   0.611163098322690   0.888946785728049   0.375483632800827   1.0000000
B2   B   0.444408691135055   0.388963849290114   0.376566279997263   1.0000000
B2   B   0.944460571426579   0.889003362455543   0.375544493418904   1.0000000
B2   B   0.777872267588443   0.388801879799400   0.375771928796721   1.0000000
B2   B   0.277763763139524   0.555602703884790   0.874438552270290   1.0000000
B2   B   0.111003429486183   0.055529415101753   0.874486021972615   1.0000000
B2   B   0.611079746716871   0.555653701181604   0.873477494891104   1.0000000
B2   B   0.444461705986685   0.055441755360598   0.874441172696913   1.0000000
B2   B   0.944592068355303   0.555582407620689   0.874293907803992   1.0000000
B2   B   0.111163724137493   0.555563246170060   0.375560583446607   1.0000000
B2   B   0.777802539776554   0.055549876584165   0.874503617539211   1.0000000
B2   B   0.277704205977983   0.055452816738304   0.375667957144268   1.0000000
B2   B   0.444390358355285   0.555661774071227   0.375882683274261   1.0000000
B2   B   0.777879459327551   0.555659520216638   0.376186668972291   1.0000000
B2   B   0.611182298646575   0.055491429026944   0.375497037251292   1.0000000
B2   B   0.444390358355285   0.555661774071227   0.874117316725737   1.0000000
B2   B   0.944404855776096   0.055576297611206   0.375483883509585   1.0000000
B2   B   0.277811580124521   0.722236755542390   0.874464678404219   1.0000000
B2   B   0.111003746056862   0.222193056567288   0.874441617950732   1.0000000
B2   B   0.444385057005614   0.222127085468194   0.873801891651280   1.0000000
B2   B   0.611142269964698   0.722378405295943   0.874296298583679   1.0000000
B2   B   0.944563724232712   0.722367018047144   0.874295093530507   1.0000000
B2   B   0.777839815988412   0.222135822725151   0.874442197230364   1.0000000
B2   B   0.111181840594734   0.722252832434473   0.375691957378649   1.0000000
B2   B   0.444452584132862   0.722287851241119   0.375513814489671   1.0000000
B2   B   0.277665268940181   0.222190366470726   0.376067768448546   1.0000000
B2   B   0.777837705088189   0.722427603722905   0.375808763332315   1.0000000
B2   B   0.611185279453251   0.222105570817894   0.375721844736370   1.0000000
B2   B   0.944445567468383   0.222183055118171   0.375479138890156   1.0000000
B2   B   0.111090595277248   0.388876122434514   0.874492628690491   1.0000000
B2   B   0.277799773354956   0.888856453634426   0.874437485156519   1.0000000
B2   B   0.611163098322690   0.888946785728049   0.874516367199176   1.0000000
B2   B   0.444408691135055   0.388963849290114   0.873433720002733   1.0000000
B2   B   0.944460571426579   0.889003362455543   0.874455506581102   1.0000000
B2   B   0.111108243551959   0.888904143260142   0.375591411010168   1.0000000
B2   B   0.777872267588440   0.388801879799400   0.874228071203284   1.0000000
B2   B   0.444484618793981   0.888870759035344   0.375507211709231   1.0000000
B2   B   0.277701155251893   0.388941579645979   0.375792248129421   1.0000000
B2   B   0.277763763139524   0.555602703884790   0.375561447729704   1.0000000
B2   B   0.611097669397386   0.388898207157856   0.376497196166600   1.0000000
B2   B   0.777809231733076   0.889005163637532   0.375545219944789   1.0000000
B2   B   0.944521015429176   0.388829973629540   0.375543576682555   1.0000000
B2   B   0.111163724137493   0.555563246170060   0.874439416553398   1.0000000
B2   B   0.277704205977983   0.055452816738304   0.874332042855738   1.0000000
B2   B   0.777879459327551   0.555659520216638   0.873813331027711   1.0000000
B2   B   0.611182298646575   0.055491429026944   0.874502962748711   1.0000000
B2   B   0.944404855776096   0.055576297611206   0.874516116490425   1.0000000
B2   B   0.056287113817467   0.111476434403174   0.125000000000000   1.0000000
B2   B   0.552149458525256   0.609341683194192   0.125000000000000   1.0000000
B2   B   0.386989993346446   0.108843352178666   0.125000000000000   1.0000000
B2   B   0.895678861414171   0.614548844051703   0.125000000000000   1.0000000
B2   B   0.721977047023518   0.110596722346879   0.125000000000000   1.0000000
B2   B   0.055574572990296   0.777782410079872   0.625000000000000   1.0000000
B2   B   0.388870211354359   0.777754160872711   0.625000000000000   1.0000000
B2   B   0.222206902009127   0.277790432841513   0.625000000000000   1.0000000
B2   B   0.722236203474582   0.777818381475283   0.625000000000000   1.0000000
B2   B   0.555553470885824   0.277749457951257   0.625000000000000   1.0000000
B2   B   0.888894757845461   0.277761752278974   0.625000000000000   1.0000000
B2   B   0.223027058561201   0.778125746529853   0.125000000000000   1.0000000
B2   B   0.056236239157041   0.278008387620927   0.125000000000000   1.0000000
B2   B   0.554926990725859   0.777482941005815   0.125000000000000   1.0000000
B2   B   0.888968748207724   0.777914106688645   0.125000000000000   1.0000000
B2   B   0.721255320146976   0.275888372746206   0.125000000000000   1.0000000
B2   B   0.055564028272575   0.944438961852594   0.625000000000000   1.0000000
B2   B   0.388871237140576   0.944414749828233   0.625000000000000   1.0000000
B2   B   0.222195493258046   0.444445323729515   0.625000000000000   1.0000000
B2   B   0.555556884208675   0.444457338008160   0.625000000000000   1.0000000
B2   B   0.722207696446386   0.944432217316890   0.625000000000000   1.0000000
B2   B   0.888923094253528   0.444456929402332   0.625000000000000   1.0000000
B2   B   0.055589999499494   0.444656498256560   0.125000000000000   1.0000000
B2   B   0.222270970057188   0.943719417178618   0.125000000000000   1.0000000
B2   B   0.555405966321021   0.944388968859824   0.125000000000000   1.0000000
B2   B   0.387221394934446   0.445934488759288   0.125000000000000   1.0000000
B2   B   0.888894933676243   0.944676154659655   0.125000000000000   1.0000000
B2   B   0.720220768367833   0.439659026189172   0.125000000000000   1.0000000
B2   B   0.222213683628467   0.611128768482738   0.625000000000000   1.0000000
B2   B   0.055523197328376   0.111086599255919   0.625000000000000   1.0000000
B2   B   0.555531953045230   0.611132459385920   0.625000000000000   1.0000000
B2   B   0.388890357607349   0.111068093836449   0.625000000000000   1.0000000
B2   B   0.888962398696400   0.611140318218830   0.625000000000000   1.0000000
B2   B   0.057711863207562   0.611706767774477   0.125000000000000   1.0000000
B2   B   0.722214718266280   0.111103916636310   0.625000000000000   1.0000000
B2   B   0.223269525812032   0.110559291416819   0.125000000000000   1.0000000
B2   B   0.387900409075866   0.612130289110461   0.125000000000000   1.0000000
B2   B   0.718910384181044   0.612503805504963   0.125000000000000   1.0000000
B2   B   0.554869040051318   0.110695530652367   0.125000000000000   1.0000000
B2   B   0.388885372990710   0.611140460491750   0.625000000000000   1.0000000
B2   B   0.889102348050855   0.111144963480904   0.125000000000000   1.0000000
B2   B   0.222246598442888   0.777771592770164   0.625000000000000   1.0000000
B2   B   0.055533018034848   0.277790896193699   0.625000000000000   1.0000000
B2   B   0.388862635116213   0.277753509946807   0.625000000000000   1.0000000
B2   B   0.555538156916351   0.777805900686635   0.625000000000000   1.0000000
B2   B   0.888901944848291   0.777780578807951   0.625000000000000   1.0000000
B2   B   0.722259274316244   0.277761719640201   0.625000000000000   1.0000000
B2   B   0.057641724463466   0.779323274904829   0.125000000000000   1.0000000
B2   B   0.388919116528731   0.778325747758229   0.125000000000000   1.0000000
B2   B   0.224140860897051   0.279835046965099   0.125000000000000   1.0000000
B2   B   0.721388162677302   0.778621477557562   0.125000000000000   1.0000000
B2   B   0.553140114363278   0.277027426839216   0.125000000000000   1.0000000
B2   B   0.888760034760352   0.277350622780440   0.125000000000000   1.0000000
B2   B   0.055583357140567   0.444462242230206   0.625000000000000   1.0000000
B2   B   0.222205748993454   0.944389533323600   0.625000000000000   1.0000000
B2   B   0.555565684349623   0.944438460103101   0.625000000000000   1.0000000
B2   B   0.388857818315157   0.444468931893768   0.625000000000000   1.0000000
B2   B   0.888879462063934   0.944459617429217   0.625000000000000   1.0000000
B2   B   0.056313374920679   0.944970449880065   0.125000000000000   1.0000000
B2   B   0.722242329910744   0.444418641332016   0.625000000000000   1.0000000
B2   B   0.388869541591736   0.944433099143226   0.125000000000000   1.0000000
B2   B   0.221401842270592   0.445135667892191   0.125000000000000   1.0000000
B2   B   0.222510629887100   0.611642661793471   0.125000000000000   1.0000000
B2   B   0.722009049758518   0.944604046057277   0.125000000000000   1.0000000
B2   B   0.889146105296526   0.444396323761107   0.125000000000000   1.0000000
B2   B   0.055583427768298   0.611100343149081   0.625000000000000   1.0000000
B2   B   0.222185359696978   0.111089737892928   0.625000000000000   1.0000000
B2   B   0.722223643381398   0.611153484850126   0.625000000000000   1.0000000
B2   B   0.555548149856968   0.111051937841463   0.625000000000000   1.0000000
B2   B   0.888903315890328   0.111120544998887   0.625000000000000   1.0000000
C2   C   0.446788949028015   0.386628569860208   0.125000000000000   1.0000000
C2   C   0.778075624644535   0.555624024162756   0.125000000000000   1.0000000
C2   C   0.389386916335080   0.275672005688264   0.125000000000000   1.0000000
C2   C   0.555552411067374   0.442677984352666   0.125000000000000   1.0000000


