data_1
_audit_creation_method   'vasp2cif'
_cell_length_a    14.93631414619966
_cell_length_b    14.936314146199727
_cell_length_c    13.341276283792837
_cell_angle_alpha    90.0
_cell_angle_beta    90.0
_cell_angle_gamma    119.99999999999984

_symmetry_space_group_name_H-M    'P 1'
loop_
_atom_site_label
_atom_site_type_symbol
_atom_site_fract_x
_atom_site_fract_y
_atom_site_fract_z
_atom_site_occupancy
N2   N   0.111112002891374   0.055547914595495   0.125265120298039   1.0000000
N2   N   0.611108683907720   0.555561129304231   0.126611528344177   1.0000000
N2   N   0.444435911703992   0.055547914595495   0.125265120298039   1.0000000
N2   N   0.944449764891846   0.555564433649815   0.125085907989883   1.0000000
N2   N   0.777777777777779   0.055555555555557   0.124968186057158   1.0000000
N2   N   0.111111111111114   0.722222222222221   0.625005421737121   1.0000000
N2   N   0.444435911703992   0.722221330440801   0.624734879701748   1.0000000
N2   N   0.277772204028673   0.222224649425728   0.623388471655725   1.0000000
N2   N   0.777785418736993   0.722221330440801   0.624734879701748   1.0000000
N2   N   0.611105591134312   0.222227742199119   0.624567591552031   1.0000000
N2   N   0.944457120702779   0.222235434530101   0.625094655746186   1.0000000
N2   N   0.277768899683536   0.722218664574576   0.125085907989883   1.0000000
N2   N   0.111122151065018   0.222227742199119   0.125432408448664   1.0000000
N2   N   0.444452445397143   0.222224649425728   0.126611528344180   1.0000000
N2   N   0.611105591134312   0.722211182268212   0.125432408448668   1.0000000
N2   N   0.944449764891846   0.722218664574576   0.125085907989883   1.0000000
N2   N   0.777778313826930   0.222235434530101   0.124905344253221   1.0000000
N2   N   0.111114668758456   0.888883568441483   0.624914092009425   1.0000000
N2   N   0.444432206052974   0.888882769692441   0.625181634031221   1.0000000
N2   N   0.277772204028673   0.388880887936186   0.623388471655725   1.0000000
N2   N   0.611108683907720   0.388880887936186   0.623388471655725   1.0000000
N2   N   0.777778313826930   0.888876212630550   0.625094655746186   1.0000000
N2   N   0.944450563640887   0.388901127280354   0.625181634031221   1.0000000
N2   N   0.111112002891374   0.388897421629336   0.125265120298039   1.0000000
N2   N   0.277768899683536   0.888883568441483   0.125085907989883   1.0000000
N2   N   0.611097898803611   0.888876212630550   0.124905344253221   1.0000000
N2   N   0.444444444444443   0.388888888888886   0.126694701780525   1.0000000
N2   N   0.944450563640887   0.888882769692441   0.124818365969088   1.0000000
N2   N   0.777785418736993   0.388897421629336   0.125265120298039   1.0000000
N2   N   0.277782460595773   0.555550872737965   0.624163265050704   1.0000000
N2   N   0.111112002891374   0.055547914595495   0.624734879701748   1.0000000
N2   N   0.611108683907720   0.555561129304231   0.623388471655725   1.0000000
N2   N   0.444435911703992   0.055547914595495   0.624734879701748   1.0000000
N2   N   0.944449764891846   0.555564433649815   0.624914092009425   1.0000000
N2   N   0.111114668758456   0.555564433649815   0.125085907989883   1.0000000
N2   N   0.777777777777779   0.055555555555557   0.625031813943029   1.0000000
N2   N   0.277782460595773   0.055564921191169   0.125836734948797   1.0000000
N2   N   0.444452445397143   0.555561129304231   0.126611528344177   1.0000000
N2   N   0.777768412141789   0.555550872737965   0.125836734948797   1.0000000
N2   N   0.611097898803611   0.055555019506914   0.124905344253221   1.0000000
N2   N   0.444452445397143   0.555561129304231   0.623388471655725   1.0000000
N2   N   0.944457120702779   0.055555019506914   0.124905344253221   1.0000000
N2   N   0.277768899683536   0.722218664574576   0.624914092009425   1.0000000
N2   N   0.111122151065018   0.222227742199119   0.624567591552031   1.0000000
N2   N   0.444452445397143   0.222224649425728   0.623388471655725   1.0000000
N2   N   0.611105591134312   0.722211182268212   0.624567591552031   1.0000000
N2   N   0.944449764891846   0.722218664574576   0.624914092009425   1.0000000
N2   N   0.777778313826930   0.222235434530101   0.625094655746186   1.0000000
N2   N   0.111111111111114   0.722222222222221   0.124994578263065   1.0000000
N2   N   0.444435911703992   0.722221330440801   0.125265120298039   1.0000000
N2   N   0.277772204028673   0.222224649425728   0.126611528344177   1.0000000
N2   N   0.777785418736993   0.722221330440801   0.125265120298039   1.0000000
N2   N   0.611105591134312   0.222227742199119   0.125432408448668   1.0000000
N2   N   0.944457120702779   0.222235434530101   0.124905344253221   1.0000000
N2   N   0.111112002891374   0.388897421629336   0.624734879701748   1.0000000
N2   N   0.277768899683536   0.888883568441483   0.624914092009425   1.0000000
N2   N   0.611097898803611   0.888876212630550   0.625094655746186   1.0000000
N2   N   0.444444444444443   0.388888888888886   0.623305298219974   1.0000000
N2   N   0.944450563640887   0.888882769692441   0.625181634031221   1.0000000
N2   N   0.111114668758456   0.888883568441483   0.125085907989883   1.0000000
N2   N   0.777785418736993   0.388897421629336   0.624734879701748   1.0000000
N2   N   0.444432206052974   0.888882769692441   0.124818365969088   1.0000000
N2   N   0.277772204028673   0.388880887936186   0.126611528344177   1.0000000
N2   N   0.277782460595773   0.555550872737965   0.125836734948797   1.0000000
N2   N   0.611108683907720   0.388880887936186   0.126611528344181   1.0000000
N2   N   0.777778313826930   0.888876212630550   0.124905344253221   1.0000000
N2   N   0.944450563640887   0.388901127280354   0.124818365969088   1.0000000
N2   N   0.111114668758456   0.555564433649815   0.624914092009425   1.0000000
N2   N   0.277782460595773   0.055564921191169   0.624163265050704   1.0000000
N2   N   0.777768412141789   0.555550872737965   0.624163265050704   1.0000000
N2   N   0.611097898803611   0.055555019506865   0.625094655746186   1.0000000
N2   N   0.944457120702779   0.055555019506865   0.625094655746186   1.0000000
N2   N   0.055023936804062   0.110752974377397   0.375000000000000   1.0000000
N2   N   0.556274009201774   0.612548018403533   0.375000000000000   1.0000000
N2   N   0.389247233693447   0.111124625060800   0.375000000000000   1.0000000
N2   N   0.888515548109446   0.610924440721421   0.375000000000000   1.0000000
N2   N   0.722301029198338   0.111032304135339   0.375000000000000   1.0000000
N2   N   0.055553576198809   0.777779757135207   0.875000000000000   1.0000000
N2   N   0.388892927246796   0.777779008937665   0.875000000000000   1.0000000
N2   N   0.222220382275385   0.277776857804866   0.875000000000000   1.0000000
N2   N   0.722223794110852   0.777782248086061   0.875000000000000   1.0000000
N2   N   0.555556475528877   0.277776857804866   0.875000000000000   1.0000000
N2   N   0.888888398426926   0.277776796855100   0.875000000000000   1.0000000
N2   N   0.222277389328023   0.777805361330332   0.375000000000000   1.0000000
N2   N   0.055023936804062   0.277604295759714   0.375000000000000   1.0000000
N2   N   0.386973243223292   0.273946486446794   0.375000000000000   1.0000000
N2   N   0.555729037573612   0.778309396530250   0.375000000000000   1.0000000
N2   N   0.888964162642640   0.777911349221583   0.375000000000000   1.0000000
N2   N   0.722580358955822   0.277604295759714   0.375000000000000   1.0000000
N2   N   0.055554324395557   0.944447251642675   0.875000000000000   1.0000000
N2   N   0.388892927246796   0.944447251642675   0.875000000000000   1.0000000
N2   N   0.222223815440610   0.444440672408749   0.875000000000000   1.0000000
N2   N   0.555556825863882   0.444445079598606   0.875000000000000   1.0000000
N2   N   0.722223517271894   0.944447034540982   0.875000000000000   1.0000000
N2   N   0.888886081690653   0.444440406086533   0.875000000000000   1.0000000
N2   N   0.055421984111999   0.444386146755170   0.375000000000000   1.0000000
N2   N   0.222408892611744   0.944817785223883   0.375000000000000   1.0000000
N2   N   0.555634681099894   0.944484007216426   0.375000000000000   1.0000000
N2   N   0.386973243223292   0.446360090110037   0.375000000000000   1.0000000
N2   N   0.888849326116903   0.944484007216426   0.375000000000000   1.0000000
N2   N   0.722208708273249   0.444086099639881   0.375000000000000   1.0000000
N2   N   0.222226090193798   0.611107243140361   0.875000000000000   1.0000000
N2   N   0.055551085247663   0.111109539221615   0.875000000000000   1.0000000
N2   N   0.555556475528877   0.611112951056939   0.875000000000000   1.0000000
N2   N   0.388892660924579   0.111116476365191   0.875000000000000   1.0000000
N2   N   0.888881152945325   0.611107243140361   0.875000000000000   1.0000000
N2   N   0.055527972002684   0.611055944005648   0.375000000000000   1.0000000
N2   N   0.722223517271894   0.111109816062384   0.875000000000000   1.0000000
N2   N   0.221877391366844   0.111124625060800   0.375000000000000   1.0000000
N2   N   0.389247233693447   0.611455941966470   0.375000000000000   1.0000000
N2   N   0.722208708273242   0.611455941966470   0.375000000000000   1.0000000
N2   N   0.555729037573612   0.110752974377397   0.375000000000000   1.0000000
N2   N   0.388892660924579   0.611109517893643   0.875000000000000   1.0000000
N2   N   0.888731274937045   0.111032304135339   0.375000000000000   1.0000000
N2   N   0.222226180935769   0.777779757135207   0.875000000000000   1.0000000
N2   N   0.055551085247663   0.277774879359758   0.875000000000000   1.0000000
N2   N   0.388888253734723   0.277776507470286   0.875000000000000   1.0000000
N2   N   0.555558453974384   0.777782248086061   0.875000000000000   1.0000000
N2   N   0.888886081690653   0.777779008937665   0.875000000000000   1.0000000
N2   N   0.722223794110852   0.277774879359758   0.875000000000000   1.0000000
N2   N   0.055527972002684   0.777805361330332   0.375000000000000   1.0000000
N2   N   0.388947186578159   0.777911349221583   0.375000000000000   1.0000000
N2   N   0.220785314929604   0.277059324131569   0.375000000000000   1.0000000
N2   N   0.722580358955833   0.778309396530250   0.375000000000000   1.0000000
N2   N   0.556274009201774   0.277059324131569   0.375000000000000   1.0000000
N2   N   0.888849326116903   0.277698652233223   0.375000000000000   1.0000000
N2   N   0.055554324395557   0.444440406086533   0.875000000000000   1.0000000
N2   N   0.222226090193798   0.944452180388003   0.875000000000000   1.0000000
N2   N   0.555556536478251   0.944444934906402   0.875000000000000   1.0000000
N2   N   0.388888253734723   0.444445079598606   0.875000000000000   1.0000000
N2   N   0.888888398426926   0.944444934906402   0.875000000000000   1.0000000
N2   N   0.055421984111999   0.944369170690689   0.375000000000000   1.0000000
N2   N   0.722216856967846   0.444440672408749   0.875000000000000   1.0000000
N2   N   0.388947186578159   0.944369170690689   0.375000000000000   1.0000000
N2   N   0.221877391366844   0.444086099639881   0.375000000000000   1.0000000
N2   N   0.222408892611744   0.610924440721421   0.375000000000000   1.0000000
N2   N   0.559386846886746   0.446360090110037   0.375000000000000   1.0000000
N2   N   0.722301029198338   0.944602058396284   0.375000000000000   1.0000000
N2   N   0.888964162642640   0.444386146755170   0.375000000000000   1.0000000
N2   N   0.055553576198809   0.611107152398285   0.875000000000000   1.0000000
N2   N   0.222223815440610   0.111116476365191   0.875000000000000   1.0000000
N2   N   0.722216856967846   0.611109517893643   0.875000000000000   1.0000000
N2   N   0.555558453974384   0.111109539221615   0.875000000000000   1.0000000
N2   N   0.888886298792347   0.111109816062384   0.875000000000000   1.0000000
B2   B   0.109718604255577   0.054719467361648   0.375000000000000   1.0000000
B2   B   0.612679706351796   0.559420780932678   0.375000000000000   1.0000000
B2   B   0.445000863105733   0.054719467361648   0.375000000000000   1.0000000
B2   B   0.944599023634909   0.555424624316137   0.375000000000000   1.0000000
B2   B   0.777777777777779   0.055555555555557   0.375000000000000   1.0000000
B2   B   0.111111111111114   0.722222222222221   0.875000000000000   1.0000000
B2   B   0.444462089530456   0.722267315835867   0.875000000000000   1.0000000
B2   B   0.277720772254256   0.222179662864228   0.875000000000000   1.0000000
B2   B   0.777805226303579   0.722267315835867   0.875000000000000   1.0000000
B2   B   0.611142999806276   0.222190333525863   0.875000000000000   1.0000000
B2   B   0.944415840534337   0.222203910588400   0.875000000000000   1.0000000
B2   B   0.277908709016609   0.722507732650900   0.375000000000000   1.0000000
B2   B   0.108530219357297   0.220931776345544   0.375000000000000   1.0000000
B2   B   0.446741074580851   0.220653626981742   0.375000000000000   1.0000000
B2   B   0.612401556988194   0.724803113976415   0.375000000000000   1.0000000
B2   B   0.944599023634909   0.722507732650900   0.375000000000000   1.0000000
B2   B   0.778148679274650   0.221777786495300   0.375000000000000   1.0000000
B2   B   0.111099769694585   0.888878122996939   0.875000000000000   1.0000000
B2   B   0.444459853520867   0.888896593426292   0.875000000000000   1.0000000
B2   B   0.277720772254256   0.388874442722668   0.875000000000000   1.0000000
B2   B   0.611153670468803   0.388874442722668   0.875000000000000   1.0000000
B2   B   0.777788070054987   0.888917492798992   0.875000000000000   1.0000000
B2   B   0.944436739907037   0.388873479812461   0.875000000000000   1.0000000
B2   B   0.109718604255577   0.388332470227595   0.375000000000000   1.0000000
B2   B   0.277908709016609   0.888734309698419   0.375000000000000   1.0000000
B2   B   0.611555546837226   0.889704226112258   0.375000000000000   1.0000000
B2   B   0.944311958250482   0.889021375082846   0.375000000000000   1.0000000
B2   B   0.778613865972820   0.388332470227595   0.375000000000000   1.0000000
B2   B   0.277760322658451   0.555573010674896   0.875000000000000   1.0000000
B2   B   0.111066017497882   0.055528107029170   0.875000000000000   1.0000000
B2   B   0.611153670468803   0.555612561079049   0.875000000000000   1.0000000
B2   B   0.444462089530456   0.055528107029170   0.875000000000000   1.0000000
B2   B   0.944455210336389   0.555554980031203   0.875000000000000   1.0000000
B2   B   0.110825600682233   0.555424624316137   0.375000000000000   1.0000000
B2   B   0.777777777777779   0.055555555555557   0.875000000000000   1.0000000
B2   B   0.277430598643302   0.054861197287085   0.375000000000000   1.0000000
B2   B   0.446741074580851   0.559420780932678   0.375000000000000   1.0000000
B2   B   0.778472136046731   0.555902734689625   0.375000000000000   1.0000000
B2   B   0.611555546837226   0.055184654059621   0.375000000000000   1.0000000
B2   B   0.444458890610660   0.555612561079049   0.875000000000000   1.0000000
B2   B   0.943629107221071   0.055184654059621   0.375000000000000   1.0000000
B2   B   0.277778353301526   0.722233563638072   0.875000000000000   1.0000000
B2   B   0.111047333718857   0.222190333525863   0.875000000000000   1.0000000
B2   B   0.444458890610660   0.222179662864228   0.875000000000000   1.0000000
B2   B   0.611142999806276   0.722285999614932   0.875000000000000   1.0000000
B2   B   0.944455210336389   0.722233563638072   0.875000000000000   1.0000000
B2   B   0.777788070054987   0.222203910588400   0.875000000000000   1.0000000
B2   B   0.111111111111114   0.722222222222221   0.375000000000000   1.0000000
B2   B   0.445000863105733   0.723614729078118   0.375000000000000   1.0000000
B2   B   0.273912552400077   0.220653626981742   0.375000000000000   1.0000000
B2   B   0.778613865972820   0.723614729078118   0.375000000000000   1.0000000
B2   B   0.612401556988194   0.220931776345544   0.375000000000000   1.0000000
B2   B   0.943629107221071   0.221777786495300   0.375000000000000   1.0000000
B2   B   0.111066017497882   0.388871243802873   0.875000000000000   1.0000000
B2   B   0.277778353301526   0.888878122996939   0.875000000000000   1.0000000
B2   B   0.611129422745235   0.888917492798992   0.875000000000000   1.0000000
B2   B   0.444444444444443   0.388888888888886   0.875000000000000   1.0000000
B2   B   0.944436739907037   0.888896593426292   0.875000000000000   1.0000000
B2   B   0.110825600682233   0.888734309698419   0.375000000000000   1.0000000
B2   B   0.777805226303579   0.388871243802873   0.875000000000000   1.0000000
B2   B   0.444709416834436   0.889021375082846   0.375000000000000   1.0000000
B2   B   0.273912552400077   0.386592258752477   0.375000000000000   1.0000000
B2   B   0.277430598643302   0.555902734689625   0.375000000000000   1.0000000
B2   B   0.612679706351796   0.386592258752477   0.375000000000000   1.0000000
B2   B   0.778148679274650   0.889704226112258   0.375000000000000   1.0000000
B2   B   0.944311958250482   0.388623916498893   0.375000000000000   1.0000000
B2   B   0.111099769694585   0.555554980031203   0.875000000000000   1.0000000
B2   B   0.277760322658451   0.055520645316834   0.875000000000000   1.0000000
B2   B   0.777812688016435   0.555573010674896   0.875000000000000   1.0000000
B2   B   0.611129422745235   0.055545263278769   0.875000000000000   1.0000000
B2   B   0.944415840534337   0.055545263278769   0.875000000000000   1.0000000
B2   B   0.055443707644403   0.111014100333957   0.124620109567713   1.0000000
B2   B   0.555647449025250   0.611294898050491   0.125347378431534   1.0000000
B2   B   0.388851654176836   0.110911173719417   0.125180607286446   1.0000000
B2   B   0.889057143115782   0.611195238223729   0.124804084274907   1.0000000
B2   B   0.722233554903546   0.111099778430818   0.124507723909441   1.0000000
B2   B   0.055577139878833   0.777756193453806   0.625414439072382   1.0000000
B2   B   0.388848034872312   0.777827277496631   0.625444320931208   1.0000000
B2   B   0.222038435282841   0.277685884308090   0.624652621568916   1.0000000
B2   B   0.722319232999431   0.777889625688489   0.625379890432377   1.0000000
B2   B   0.555647449025250   0.277685884308090   0.624652621568916   1.0000000
B2   B   0.888896838928908   0.277793677858596   0.625578604118852   1.0000000
B2   B   0.222179053575721   0.777756193453806   0.124585560928134   1.0000000
B2   B   0.055443707644403   0.277762940644252   0.124620109567713   1.0000000
B2   B   0.388862941809635   0.277725883619302   0.125789696111551   1.0000000
B2   B   0.555570392689886   0.777889625688489   0.124620109567713   1.0000000
B2   B   0.888979242623714   0.777827277496631   0.124555679069243   1.0000000
B2   B   0.722319232999431   0.277762940644252   0.124620109567713   1.0000000
B2   B   0.055506055837150   0.944354090709615   0.625444320931208   1.0000000
B2   B   0.388848034872312   0.944354090709615   0.625444320931208   1.0000000
B2   B   0.222059519541912   0.444481679156492   0.624819392713096   1.0000000
B2   B   0.555607449714059   0.444470391523694   0.624210303888467   1.0000000
B2   B   0.722233554903546   0.944467109805441   0.625492276090514   1.0000000
B2   B   0.888979242623714   0.444485298461016   0.625444320931208   1.0000000
B2   B   0.055506055837150   0.444485298461016   0.124555679069243   1.0000000
B2   B   0.222138095108671   0.944276190217546   0.124804084274907   1.0000000
B2   B   0.555539655475120   0.944436494404421   0.124421395882167   1.0000000
B2   B   0.388862941809635   0.444470391523694   0.125789696111551   1.0000000
B2   B   0.888896838928908   0.944436494404421   0.124421395882167   1.0000000
B2   B   0.722422159614078   0.444481679156492   0.125180607286446   1.0000000
B2   B   0.222138095108671   0.611195238223729   0.625195915726165   1.0000000
B2   B   0.055443707644403   0.111014100333957   0.625379890432377   1.0000000
B2   B   0.555647449025250   0.611294898050491   0.624652621568916   1.0000000
B2   B   0.388851654176836   0.110911173719417   0.624819392713096   1.0000000
B2   B   0.889057143115782   0.611195238223729   0.625195915726165   1.0000000
B2   B   0.055577139878833   0.611154279757822   0.124585560928134   1.0000000
B2   B   0.722233554903546   0.111099778430818   0.625492276090514   1.0000000
B2   B   0.222059519541912   0.110911173719417   0.125180607286446   1.0000000
B2   B   0.388851654176836   0.611273813790705   0.125180607286446   1.0000000
B2   B   0.722422159614078   0.611273813790705   0.125180607286446   1.0000000
B2   B   0.555570392689886   0.111014100333957   0.124620109567713   1.0000000
B2   B   0.388851654176836   0.611273813790705   0.624819392713096   1.0000000
B2   B   0.888866223527888   0.111099778430818   0.124507723909441   1.0000000
B2   B   0.222179053575721   0.777756193453806   0.625414439072382   1.0000000
B2   B   0.055443707644403   0.277762940644252   0.625379890432377   1.0000000
B2   B   0.388862941809635   0.277725883619302   0.624210303888467   1.0000000
B2   B   0.555570392689886   0.777889625688489   0.625379890432377   1.0000000
B2   B   0.888979242623714   0.777827277496631   0.625444320931208   1.0000000
B2   B   0.722319232999431   0.277762940644252   0.625379890432377   1.0000000
B2   B   0.055577139878833   0.777756193453806   0.124585560928134   1.0000000
B2   B   0.388848034872312   0.777827277496631   0.124555679069243   1.0000000
B2   B   0.222038435282841   0.277685884308090   0.125347378431534   1.0000000
B2   B   0.722319232999431   0.777889625688489   0.124620109567713   1.0000000
B2   B   0.555647449025250   0.277685884308090   0.125347378431534   1.0000000
B2   B   0.888896838928908   0.277793677858596   0.124421395882167   1.0000000
B2   B   0.055506055837150   0.444485298461016   0.625444320931208   1.0000000
B2   B   0.222138095108671   0.944276190217546   0.625195915726165   1.0000000
B2   B   0.555539655475120   0.944436494404421   0.625578604118852   1.0000000
B2   B   0.388862941809635   0.444470391523694   0.624210303888467   1.0000000
B2   B   0.888896838928908   0.944436494404421   0.625578604118852   1.0000000
B2   B   0.055506055837150   0.944354090709615   0.124555679069243   1.0000000
B2   B   0.722422159614078   0.444481679156492   0.624819392713096   1.0000000
B2   B   0.388848034872312   0.944354090709615   0.124555679069243   1.0000000
B2   B   0.222059519541912   0.444481679156492   0.125180607286446   1.0000000
B2   B   0.222138095108671   0.611195238223729   0.124804084274907   1.0000000
B2   B   0.555607449714059   0.444470391523694   0.125789696111551   1.0000000
B2   B   0.722233554903546   0.944467109805441   0.124507723909441   1.0000000
B2   B   0.888979242623714   0.444485298461016   0.124555679069243   1.0000000
B2   B   0.055577139878833   0.611154279757822   0.625414439072382   1.0000000
B2   B   0.222059519541912   0.110911173719417   0.624819392713096   1.0000000
B2   B   0.722422159614078   0.611273813790705   0.624819392713096   1.0000000
B2   B   0.555570392689886   0.111014100333957   0.625379890432377   1.0000000
B2   B   0.888866223527888   0.111099778430818   0.625492276090514   1.0000000


