data_1
_audit_creation_method   'vasp2cif'
_cell_length_a    17.52789999999977
_cell_length_b    17.52789999999977
_cell_length_c    15.0
_cell_angle_alpha    90.0
_cell_angle_beta    90.0
_cell_angle_gamma    119.99999999999916

_symmetry_space_group_name_H-M    'P 1'
loop_
_atom_site_label
_atom_site_type_symbol
_atom_site_fract_x
_atom_site_fract_y
_atom_site_fract_z
_atom_site_occupancy
B2   B   0.904636012499156   0.952171815126642   0.094009714353310   1.0000000
B2   B   0.904844081249572   0.095157939946421   0.090587795042669   1.0000000
B2   B   0.904899618894979   0.238164156292993   0.090296056715255   1.0000000
B2   B   0.904844081249572   0.381114834994148   0.090587795042669   1.0000000
B2   B   0.904636012499156   0.523894602620519   0.094009714353310   1.0000000
B2   B   0.903814092085839   0.666434296712089   0.100682943292048   1.0000000
B2   B   0.903814092085839   0.808810200621758   0.100682943292048   1.0000000
B2   B   0.047583516929484   0.952418504266527   0.093790825216777   1.0000000
B2   B   0.047830206069366   0.095366008696837   0.094009714353310   1.0000000
B2   B   0.047857799467030   0.238203423575406   0.096746551204337   1.0000000
B2   B   0.047857799467030   0.381084781138627   0.096746551204337   1.0000000
B2   B   0.047830206069366   0.523894602620519   0.094009714353310   1.0000000
B2   B   0.047583516929484   0.666597129466960   0.093790825216777   1.0000000
B2   B   0.047356262525121   0.809394189664560   0.094485558276552   1.0000000
B2   B   0.190607831531441   0.952645758670876   0.094485558276552   1.0000000
B2   B   0.191191820574248   0.096187929110152   0.100682943292048   1.0000000
B2   B   0.189996829278852   0.237764212719560   0.112014536066705   1.0000000
B2   B   0.189204433480256   0.380317419363628   0.120538060662642   1.0000000
B2   B   0.189996829278852   0.523663021807298   0.112014536066705   1.0000000
B2   B   0.191191820574248   0.666434296712089   0.100682943292048   1.0000000
B2   B   0.190607831531441   0.809394189664560   0.094485558276552   1.0000000
B2   B   0.333404891730036   0.952418504266527   0.093790825216777   1.0000000
B2   B   0.333567724484908   0.096187929110152   0.100682943292048   1.0000000
B2   B   0.334150255136241   0.239728894322483   0.124580821435308   1.0000000
B2   B   0.325954392116507   0.375888783292795   0.161423984163039   1.0000000
B2   B   0.325954392116507   0.521496014070711   0.161423984163039   1.0000000
B2   B   0.334150255136241   0.665851766060761   0.124580821435308   1.0000000
B2   B   0.333567724484908   0.808810200621758   0.100682943292048   1.0000000
B2   B   0.476107418576477   0.952171815126642   0.094009714353310   1.0000000
B2   B   0.476107418576477   0.095366008696837   0.094009714353310   1.0000000
B2   B   0.476338999389698   0.237764212719560   0.112014536066705   1.0000000
B2   B   0.478506007126284   0.375888783292795   0.161423984163039   1.0000000
B2   B   0.478506007126284   0.674047629080490   0.161423984163039   1.0000000
B2   B   0.476338999389697   0.810005191917155   0.112014536066705   1.0000000
B2   B   0.618917240057390   0.952144221728980   0.096746551204337   1.0000000
B2   B   0.618887186201860   0.095157939946421   0.090587795042669   1.0000000
B2   B   0.618917240057390   0.238203423575406   0.096746551204337   1.0000000
B2   B   0.619684601832375   0.380317419363628   0.120538060662642   1.0000000
B2   B   0.624113237903211   0.521496014070711   0.161423984163039   1.0000000
B2   B   0.624113237903210   0.674047629080490   0.161423984163039   1.0000000
B2   B   0.619684601832375   0.810797587715748   0.120538060662642   1.0000000
B2   B   0.761798597620594   0.952144221728980   0.096746551204337   1.0000000
B2   B   0.761837864903009   0.095102402301014   0.090296056715255   1.0000000
B2   B   0.761837864903009   0.238164156292993   0.090296056715255   1.0000000
B2   B   0.761798597620594   0.381084781138627   0.096746551204337   1.0000000
B2   B   0.762237808476447   0.523663021807298   0.112014536066705   1.0000000
B2   B   0.760273126873520   0.665851766060761   0.124580821435308   1.0000000
B2   B   0.762237808476447   0.810005191917155   0.112014536066705   1.0000000
N2   N   0.951958061531897   0.904269482314893   0.094769522864861   1.0000000
N2   N   0.952486398350820   0.047515003567184   0.091046924672310   1.0000000
N2   N   0.952632317476603   0.190553077564808   0.090969011224678   1.0000000
N2   N   0.952632317476603   0.333506222029792   0.090969011224678   1.0000000
N2   N   0.952486398350820   0.476398376901636   0.091046924672310   1.0000000
N2   N   0.951958061531897   0.619117272892011   0.094769522864861   1.0000000
N2   N   0.951833172271904   0.761630932973448   0.097916950884789   1.0000000
N2   N   0.095215581876969   0.904785820041031   0.093686597662809   1.0000000
N2   N   0.095731919603109   0.048043340386102   0.094769522864861   1.0000000
N2   N   0.095558937639180   0.190626718976054   0.098309038341177   1.0000000
N2   N   0.095496658405185   0.333462676039592   0.102372180193730   1.0000000
N2   N   0.095558937639180   0.476360912337128   0.098309038341177   1.0000000
N2   N   0.095731919603109   0.619117272892011   0.094769522864861   1.0000000
N2   N   0.095215581876969   0.761860167066946   0.093686597662809   1.0000000
N2   N   0.238141234851062   0.904785820041031   0.093686597662809   1.0000000
N2   N   0.238370468944553   0.048168229646104   0.097916950884789   1.0000000
N2   N   0.239015735502159   0.191517258132377   0.111730453023600   1.0000000
N2   N   0.235850691886355   0.331515218083742   0.128942303871887   1.0000000
N2   N   0.235850691886355   0.475764167476608   0.128942303871887   1.0000000
N2   N   0.239015735502159   0.618927171044789   0.111730453023600   1.0000000
N2   N   0.238370468944553   0.761630932973448   0.097916950884789   1.0000000
N2   N   0.380884129025986   0.904269482314893   0.094769522864861   1.0000000
N2   N   0.380884129025986   0.048043340386102   0.094769522864861   1.0000000
N2   N   0.381074230873221   0.191517258132377   0.111730453023600   1.0000000
N2   N   0.381012655268259   0.333452602293516   0.152365234841510   1.0000000
N2   N   0.355295317264009   0.463362005469000   0.198571323847633   1.0000000
N2   N   0.381012655268259   0.618988746649737   0.152365234841510   1.0000000
N2   N   0.381074230873221   0.760985666415847   0.111730453023600   1.0000000
N2   N   0.523640489579868   0.904442464278813   0.098309038341177   1.0000000
N2   N   0.523603025015360   0.047515003567184   0.091046924672310   1.0000000
N2   N   0.523640489579872   0.190626718976054   0.098309038341177   1.0000000
N2   N   0.524237234440384   0.331515218083742   0.128942303871887   1.0000000
N2   N   0.536639396447997   0.463362005469000   0.198571323847633   1.0000000
N2   N   0.536639396447997   0.644706084653993   0.198571323847633   1.0000000
N2   N   0.524237234440384   0.764150710031648   0.128942303871887   1.0000000
N2   N   0.666538725877409   0.904504743512816   0.102372180193730   1.0000000
N2   N   0.666495179887206   0.047369084441406   0.090969011224678   1.0000000
N2   N   0.666495179887206   0.190553077564808   0.090969011224678   1.0000000
N2   N   0.666538725877409   0.333462676039592   0.102372180193730   1.0000000
N2   N   0.668486183833256   0.475764167476608   0.128942303871887   1.0000000
N2   N   0.666548799623481   0.618988746649737   0.152365234841510   1.0000000
N2   N   0.668486183833256   0.764150710031648   0.128942303871887   1.0000000
N2   N   0.809374682941945   0.904442464278813   0.098309038341177   1.0000000
N2   N   0.809448324353189   0.047369084441406   0.090969011224678   1.0000000
N2   N   0.809525273905997   0.190476128012001   0.089408097453393   1.0000000
N2   N   0.809448324353189   0.333506222029792   0.090969011224678   1.0000000
N2   N   0.809374682941945   0.476360912337128   0.098309038341177   1.0000000
N2   N   0.808484143785623   0.618927171044789   0.111730453023600   1.0000000
N2   N   0.808484143785623   0.760985666415847   0.111730453023600   1.0000000
S2   S   0.476191212381998   0.523810808815000   0.202248563756788   1.0000000


