data_1
_audit_creation_method   'vasp2cif'
_cell_length_a    14.93631414619966
_cell_length_b    14.936314146199727
_cell_length_c    13.341276283792837
_cell_angle_alpha    90.0
_cell_angle_beta    90.0
_cell_angle_gamma    119.99999999999984

_symmetry_space_group_name_H-M    'P 1'
loop_
_atom_site_label
_atom_site_type_symbol
_atom_site_fract_x
_atom_site_fract_y
_atom_site_fract_z
_atom_site_occupancy
O2   O   0.555555555555557   0.444444444444443   0.375000000000000   1.0000000
N2   N   0.111114220669078   0.055560177235241   0.125023862026672   1.0000000
N2   N   0.611075658624400   0.555484650582130   0.125387671809106   1.0000000
N2   N   0.444454842496744   0.055563016993867   0.125011659743463   1.0000000
N2   N   0.944436983006134   0.555545157503256   0.125011659743463   1.0000000
N2   N   0.777775975642418   0.055554654487876   0.125019374650669   1.0000000
N2   N   0.111105599556912   0.722219466445120   0.624999591968136   1.0000000
N2   N   0.444454842496744   0.722225158836213   0.624988340256537   1.0000000
N2   N   0.277800828830947   0.222235319174770   0.624920129689837   1.0000000
N2   N   0.777764680825230   0.722199171169053   0.624920129689837   1.0000000
N2   N   0.611101157010495   0.222235319174770   0.624920129689837   1.0000000
N2   N   0.944445345512124   0.222224024357583   0.624980625349332   1.0000000
N2   N   0.277780533554880   0.722219466445120   0.125000408031864   1.0000000
N2   N   0.111132853151968   0.222233093242648   0.125052511357080   1.0000000
N2   N   0.444449041347931   0.222231416029198   0.125082402675209   1.0000000
N2   N   0.611101157010495   0.722199171169053   0.125079870310163   1.0000000
N2   N   0.944436983006134   0.722225158836213   0.125011659743463   1.0000000
N2   N   0.777766906757352   0.222233093242648   0.125052511357080   1.0000000
N2   N   0.111108278360493   0.888891721639507   0.624982765291627   1.0000000
N2   N   0.444450109945686   0.888891721639507   0.624982765291627   1.0000000
N2   N   0.277800828830947   0.388898842989505   0.624920129689837   1.0000000
N2   N   0.611075658624400   0.388924341375600   0.624612328190894   1.0000000
N2   N   0.777766906757352   0.888867146848032   0.624947488642920   1.0000000
N2   N   0.944439822764759   0.388887376767166   0.624976137973328   1.0000000
N2   N   0.111114220669078   0.388887376767166   0.125023862026672   1.0000000
N2   N   0.277780533554880   0.888894400443088   0.125000408031864   1.0000000
N2   N   0.611112623232834   0.888885779330922   0.125023862026672   1.0000000
N2   N   0.444515349417870   0.388924341375600   0.125387671809106   1.0000000
N2   N   0.944439822764759   0.888885779330922   0.125023862026672   1.0000000
N2   N   0.777764680825230   0.388898842989505   0.125079870310163   1.0000000
N2   N   0.277774841163787   0.555545157503256   0.624988340256537   1.0000000
N2   N   0.111114220669078   0.055560177235241   0.624976137973328   1.0000000
N2   N   0.611075658624400   0.555484650582130   0.624612328190894   1.0000000
N2   N   0.444454842496744   0.055563016993867   0.624988340256537   1.0000000
N2   N   0.944436983006134   0.555545157503256   0.624988340256537   1.0000000
N2   N   0.111108278360493   0.555549890054314   0.125017234708373   1.0000000
N2   N   0.777775975642418   0.055554654487876   0.624980625349332   1.0000000
N2   N   0.277774841163787   0.055563016993867   0.125011659743463   1.0000000
N2   N   0.444449041347931   0.555550958652069   0.125082402675209   1.0000000
N2   N   0.777768583970802   0.555550958652069   0.125082402675209   1.0000000
N2   N   0.611112623232834   0.055560177235241   0.125023862026672   1.0000000
N2   N   0.444449041347931   0.555550958652069   0.624917597324791   1.0000000
N2   N   0.944445345512124   0.055554654487876   0.125019374650669   1.0000000
N2   N   0.277780533554880   0.722219466445120   0.624999591968136   1.0000000
N2   N   0.111132853151968   0.222233093242648   0.624947488642920   1.0000000
N2   N   0.444449041347931   0.222231416029198   0.624917597324791   1.0000000
N2   N   0.611101157010495   0.722199171169053   0.624920129689837   1.0000000
N2   N   0.944436983006134   0.722225158836213   0.624988340256537   1.0000000
N2   N   0.777766906757352   0.222233093242648   0.624947488642920   1.0000000
N2   N   0.111105599556912   0.722219466445120   0.125000408031864   1.0000000
N2   N   0.444454842496744   0.722225158836213   0.125011659743463   1.0000000
N2   N   0.277800828830947   0.222235319174770   0.125079870310163   1.0000000
N2   N   0.777764680825230   0.722199171169053   0.125079870310163   1.0000000
N2   N   0.611101157010495   0.222235319174770   0.125079870310163   1.0000000
N2   N   0.944445345512124   0.222224024357583   0.125019374650669   1.0000000
N2   N   0.111114220669078   0.388887376767166   0.624976137973328   1.0000000
N2   N   0.277780533554880   0.888894400443088   0.624999591968136   1.0000000
N2   N   0.611112623232834   0.888885779330922   0.624976137973328   1.0000000
N2   N   0.444515349417870   0.388924341375600   0.624612328190894   1.0000000
N2   N   0.944439822764759   0.888885779330922   0.624976137973328   1.0000000
N2   N   0.111108278360493   0.888891721639507   0.125017234708373   1.0000000
N2   N   0.777764680825230   0.388898842989505   0.624920129689837   1.0000000
N2   N   0.444450109945686   0.888891721639507   0.125017234708373   1.0000000
N2   N   0.277800828830947   0.388898842989505   0.125079870310163   1.0000000
N2   N   0.277774841163787   0.555545157503256   0.125011659743463   1.0000000
N2   N   0.611075658624400   0.388924341375600   0.125387671809106   1.0000000
N2   N   0.777766906757352   0.888867146848032   0.125052511357080   1.0000000
N2   N   0.944439822764759   0.388887376767166   0.125023862026672   1.0000000
N2   N   0.111108278360493   0.555549890054314   0.624982765291627   1.0000000
N2   N   0.277774841163787   0.055563016993867   0.624988340256537   1.0000000
N2   N   0.777768583970802   0.555550958652069   0.624917597324791   1.0000000
N2   N   0.611112623232834   0.055560177235241   0.624976137973328   1.0000000
N2   N   0.944445345512124   0.055554654487876   0.624980625349332   1.0000000
N2   N   0.055622329691863   0.111156480325985   0.375000000000000   1.0000000
N2   N   0.555345149989794   0.610304006572646   0.375000000000000   1.0000000
N2   N   0.388755453715390   0.110844240764122   0.375000000000000   1.0000000
N2   N   0.889155759235878   0.611244546284611   0.375000000000000   1.0000000
N2   N   0.722200817300786   0.111156480325985   0.375000000000000   1.0000000
N2   N   0.055550625165875   0.777777111348101   0.875000000000000   1.0000000
N2   N   0.388893152848890   0.777777111348101   0.875000000000000   1.0000000
N2   N   0.222220043198512   0.277776688265924   0.875000000000000   1.0000000
N2   N   0.722223311734076   0.777779956801488   0.875000000000000   1.0000000
N2   N   0.555554950480453   0.277783840687197   0.875000000000000   1.0000000
N2   N   0.888888866398071   0.277777570971219   0.875000000000000   1.0000000
N2   N   0.222222222222221   0.777777777777779   0.375000000000000   1.0000000
N2   N   0.055622329691863   0.277799182699214   0.375000000000000   1.0000000
N2   N   0.389695993427353   0.278374476750483   0.375000000000000   1.0000000
N2   N   0.555515711832518   0.777495965962426   0.375000000000000   1.0000000
N2   N   0.888646920796572   0.777495965962426   0.375000000000000   1.0000000
N2   N   0.722080181894286   0.277919818105714   0.375000000000000   1.0000000
N2   N   0.055557634908754   0.944442365091245   0.875000000000000   1.0000000
N2   N   0.388893152848890   0.944449374834125   0.875000000000000   1.0000000
N2   N   0.222222417495815   0.444440389971928   0.875000000000000   1.0000000
N2   N   0.555555555555557   0.444444444444443   0.875000000000000   1.0000000
N2   N   0.722222429028781   0.944444628760188   0.875000000000000   1.0000000
N2   N   0.888884639142778   0.444440389971928   0.875000000000000   1.0000000
N2   N   0.055509936409300   0.444353206151929   0.375000000000000   1.0000000
N2   N   0.222158366607156   0.944383887020634   0.375000000000000   1.0000000
N2   N   0.555646793848071   0.944490063590700   0.375000000000000   1.0000000
N2   N   0.389695993427353   0.444654850010206   0.375000000000000   1.0000000
N2   N   0.888843519674016   0.944377670308137   0.375000000000000   1.0000000
N2   N   0.721625523249517   0.444654850010206   0.375000000000000   1.0000000
N2   N   0.222222888651899   0.611106847151110   0.875000000000000   1.0000000
N2   N   0.055555371239812   0.111111133601929   0.875000000000000   1.0000000
N2   N   0.555554950480453   0.611104443126592   0.875000000000000   1.0000000
N2   N   0.388895043392806   0.111123420118954   0.875000000000000   1.0000000
N2   N   0.888876579881046   0.611104956607194   0.875000000000000   1.0000000
N2   N   0.055616112979366   0.611107812919858   0.375000000000000   1.0000000
N2   N   0.722222429028781   0.111111133601929   0.875000000000000   1.0000000
N2   N   0.222504034037574   0.111353079203428   0.375000000000000   1.0000000
N2   N   0.388755453715390   0.611244546284611   0.375000000000000   1.0000000
N2   N   0.721625523249517   0.610304006572646   0.375000000000000   1.0000000
N2   N   0.555515711832518   0.111353079203428   0.375000000000000   1.0000000
N2   N   0.388895043392806   0.611104956607194   0.875000000000000   1.0000000
N2   N   0.888888888888886   0.111111111111114   0.375000000000000   1.0000000
N2   N   0.222222222222221   0.777777777777779   0.875000000000000   1.0000000
N2   N   0.055555371239812   0.277777570971219   0.875000000000000   1.0000000
N2   N   0.388895556873408   0.277783840687197   0.875000000000000   1.0000000
N2   N   0.555559610028072   0.777777582504184   0.875000000000000   1.0000000
N2   N   0.888884639142778   0.777777582504184   0.875000000000000   1.0000000
N2   N   0.722223311734076   0.277776688265924   0.875000000000000   1.0000000
N2   N   0.055616112979366   0.777841633392844   0.375000000000000   1.0000000
N2   N   0.388892187080142   0.777841633392844   0.375000000000000   1.0000000
N2   N   0.222506302878092   0.277919818105714   0.375000000000000   1.0000000
N2   N   0.722080181894286   0.777493697121908   0.375000000000000   1.0000000
N2   N   0.555345149989794   0.278374476750483   0.375000000000000   1.0000000
N2   N   0.888843519674016   0.277799182699214   0.375000000000000   1.0000000
N2   N   0.055557634908754   0.444448603150838   0.875000000000000   1.0000000
N2   N   0.222222888651899   0.944449374834125   0.875000000000000   1.0000000
N2   N   0.555551396849162   0.944442365091245   0.875000000000000   1.0000000
N2   N   0.388895556873408   0.444445049519547   0.875000000000000   1.0000000
N2   N   0.888888866398071   0.944444628760188   0.875000000000000   1.0000000
N2   N   0.055509936409300   0.944490063590700   0.375000000000000   1.0000000
N2   N   0.722216159312803   0.444445049519547   0.875000000000000   1.0000000
N2   N   0.388892187080142   0.944383887020634   0.375000000000000   1.0000000
N2   N   0.222504034037574   0.444484288167481   0.375000000000000   1.0000000
N2   N   0.222158366607156   0.611107812919858   0.375000000000000   1.0000000
N2   N   0.722200817300786   0.944377670308137   0.375000000000000   1.0000000
N2   N   0.888646920796572   0.444484288167481   0.375000000000000   1.0000000
N2   N   0.055550625165875   0.611106847151110   0.875000000000000   1.0000000
N2   N   0.222222417495815   0.111115360857223   0.875000000000000   1.0000000
N2   N   0.722216159312803   0.611104443126592   0.875000000000000   1.0000000
N2   N   0.555559610028072   0.111115360857223   0.875000000000000   1.0000000
N2   N   0.888888888888886   0.111111111111114   0.875000000000000   1.0000000
B2   B   0.111070308510726   0.055512629881414   0.375000000000000   1.0000000
B2   B   0.613035116515418   0.559403566364163   0.375000000000000   1.0000000
B2   B   0.444069772855052   0.055223522967971   0.375000000000000   1.0000000
B2   B   0.944776477032029   0.555930227144948   0.375000000000000   1.0000000
B2   B   0.777746447632145   0.055539890482741   0.375000000000000   1.0000000
B2   B   0.111108725459619   0.722221029396474   0.875000000000000   1.0000000
B2   B   0.444438630669471   0.722231392806273   0.875000000000000   1.0000000
B2   B   0.277751620243154   0.222205432788228   0.875000000000000   1.0000000
B2   B   0.777794567211772   0.722248379756846   0.875000000000000   1.0000000
B2   B   0.611120479211746   0.222205432788228   0.875000000000000   1.0000000
B2   B   0.944445955910753   0.222225245154841   0.875000000000000   1.0000000
B2   B   0.277775136704071   0.722224863295928   0.375000000000000   1.0000000
B2   B   0.110994532301759   0.222163932817544   0.375000000000000   1.0000000
B2   B   0.444024326313068   0.221381985959473   0.375000000000000   1.0000000
B2   B   0.611268048111188   0.722505928544268   0.375000000000000   1.0000000
B2   B   0.944776477032029   0.722179583220416   0.375000000000000   1.0000000
B2   B   0.777836067182456   0.222163932817544   0.375000000000000   1.0000000
B2   B   0.111111660098861   0.888888339901139   0.875000000000000   1.0000000
B2   B   0.444443346468950   0.888888339901139   0.875000000000000   1.0000000
B2   B   0.277751620243154   0.388879520788254   0.875000000000000   1.0000000
B2   B   0.611123498663682   0.388876501336318   0.875000000000000   1.0000000
B2   B   0.777787191996241   0.888907717325810   0.875000000000000   1.0000000
B2   B   0.944456657466410   0.388886980023294   0.875000000000000   1.0000000
B2   B   0.111070308510726   0.388891011962640   0.375000000000000   1.0000000
B2   B   0.277775136704071   0.888883606741471   0.375000000000000   1.0000000
B2   B   0.611108988037360   0.888929691489274   0.375000000000000   1.0000000
B2   B   0.440596433635837   0.386964883484583   0.375000000000000   1.0000000
B2   B   0.944487370118586   0.888929691489274   0.375000000000000   1.0000000
B2   B   0.777904547099751   0.388731951888812   0.375000000000000   1.0000000
B2   B   0.277768607193727   0.555561369330529   0.875000000000000   1.0000000
B2   B   0.111096989223555   0.055543342533590   0.875000000000000   1.0000000
B2   B   0.611123498663682   0.555580330660693   0.875000000000000   1.0000000
B2   B   0.444438630669471   0.055540571196533   0.875000000000000   1.0000000
B2   B   0.944459428803467   0.555561369330529   0.875000000000000   1.0000000
B2   B   0.111156222280586   0.555645777894501   0.375000000000000   1.0000000
B2   B   0.777774754845159   0.055554044089248   0.875000000000000   1.0000000
B2   B   0.277820416779583   0.055223522967971   0.375000000000000   1.0000000
B2   B   0.444024326313068   0.555975673686932   0.375000000000000   1.0000000
B2   B   0.778618014040527   0.555975673686932   0.375000000000000   1.0000000
B2   B   0.611108988037360   0.055512629881414   0.375000000000000   1.0000000
B2   B   0.444433952224500   0.555566047775500   0.875000000000000   1.0000000
B2   B   0.944460109517259   0.055539890482741   0.375000000000000   1.0000000
B2   B   0.277778970603526   0.722221029396474   0.875000000000000   1.0000000
B2   B   0.111092282674189   0.222212808003759   0.875000000000000   1.0000000
B2   B   0.444433952224500   0.222201237782336   0.875000000000000   1.0000000
B2   B   0.611120479211746   0.722248379756846   0.875000000000000   1.0000000
B2   B   0.944459428803467   0.722231392806273   0.875000000000000   1.0000000
B2   B   0.777787191996241   0.222212808003759   0.875000000000000   1.0000000
B2   B   0.111116393258528   0.722224863295928   0.375000000000000   1.0000000
B2   B   0.444069772855052   0.722179583220416   0.375000000000000   1.0000000
B2   B   0.277494071455733   0.222095452900249   0.375000000000000   1.0000000
B2   B   0.777904547099751   0.722505928544268   0.375000000000000   1.0000000
B2   B   0.611268048111188   0.222095452900249   0.375000000000000   1.0000000
B2   B   0.944460109517259   0.222253552367855   0.375000000000000   1.0000000
B2   B   0.111096989223555   0.388886980023294   0.875000000000000   1.0000000
B2   B   0.277778970603526   0.888891274540381   0.875000000000000   1.0000000
B2   B   0.611113019976706   0.888903010776445   0.875000000000000   1.0000000
B2   B   0.444419669339307   0.388876501336318   0.875000000000000   1.0000000
B2   B   0.944456657466410   0.888903010776445   0.875000000000000   1.0000000
B2   B   0.111156222280586   0.888843777719414   0.375000000000000   1.0000000
B2   B   0.777794567211772   0.388879520788254   0.875000000000000   1.0000000
B2   B   0.444354222105499   0.888843777719414   0.375000000000000   1.0000000
B2   B   0.277494071455733   0.388731951888812   0.375000000000000   1.0000000
B2   B   0.277820416779583   0.555930227144948   0.375000000000000   1.0000000
B2   B   0.613035116515418   0.386964883484583   0.375000000000000   1.0000000
B2   B   0.777836067182456   0.889005467698241   0.375000000000000   1.0000000
B2   B   0.944487370118586   0.388891011962640   0.375000000000000   1.0000000
B2   B   0.111111660098861   0.555556653531050   0.875000000000000   1.0000000
B2   B   0.277768607193727   0.055540571196533   0.875000000000000   1.0000000
B2   B   0.777798762217664   0.555566047775500   0.875000000000000   1.0000000
B2   B   0.611113019976706   0.055543342533590   0.875000000000000   1.0000000
B2   B   0.944445955910753   0.055554044089248   0.875000000000000   1.0000000
B2   B   0.055548691859677   0.111081435839298   0.125002556965901   1.0000000
B2   B   0.555536663215385   0.611180751392084   0.125005135089949   1.0000000
B2   B   0.388833039018804   0.110999411370950   0.125052155233945   1.0000000
B2   B   0.889000588629050   0.611166960981196   0.125052155233945   1.0000000
B2   B   0.722199410646285   0.111081435839298   0.125002556965901   1.0000000
B2   B   0.055571689573489   0.777771546945367   0.624965301625195   1.0000000
B2   B   0.388866524038542   0.777771546945367   0.624965301625195   1.0000000
B2   B   0.222229329729261   0.277781331531299   0.625009577484195   1.0000000
B2   B   0.722218668468702   0.777770670270739   0.625009577484195   1.0000000
B2   B   0.555536663215385   0.277689245156637   0.624994864910051   1.0000000
B2   B   0.888918564160702   0.277800589353715   0.624997443034099   1.0000000
B2   B   0.222222222222221   0.777777777777779   0.125010954188712   1.0000000
B2   B   0.055548691859677   0.277800589353715   0.125002556965901   1.0000000
B2   B   0.388819248607916   0.277689245156637   0.125005135089949   1.0000000
B2   B   0.555526833116627   0.777797262021217   0.124998574225590   1.0000000
B2   B   0.888937095571255   0.777797262021217   0.124998574225590   1.0000000
B2   B   0.722218668468702   0.277781331531299   0.124990422515805   1.0000000
B2   B   0.055552654984256   0.944447345015744   0.624985430218187   1.0000000
B2   B   0.388866524038542   0.944428310426511   0.624965301625195   1.0000000
B2   B   0.222202737978783   0.444473166883373   0.625001425774411   1.0000000
B2   B   0.555555555555557   0.444444444444443   0.625792777071509   1.0000000
B2   B   0.722199410646285   0.944451308140323   0.624997443034099   1.0000000
B2   B   0.888937095571255   0.444473166883373   0.625001425774411   1.0000000
B2   B   0.055552654984256   0.444438643301840   0.125014569781813   1.0000000
B2   B   0.222228453054633   0.944428310426511   0.125034698374805   1.0000000
B2   B   0.555561356698160   0.944447345015744   0.125014569781813   1.0000000
B2   B   0.388819248607916   0.444463336784615   0.125005135089949   1.0000000
B2   B   0.888918564160702   0.944451308140323   0.125002556965901   1.0000000
B2   B   0.722310754843363   0.444463336784615   0.125005135089949   1.0000000
B2   B   0.222228453054633   0.611133475961458   0.624965301625195   1.0000000
B2   B   0.055548691859677   0.111081435839298   0.624997443034099   1.0000000
B2   B   0.555536663215385   0.611180751392084   0.624994864910051   1.0000000
B2   B   0.388833039018804   0.110999411370950   0.624947844766055   1.0000000
B2   B   0.889000588629050   0.611166960981196   0.624947844766055   1.0000000
B2   B   0.055571689573489   0.611133475961458   0.125034698374805   1.0000000
B2   B   0.722199410646285   0.111081435839298   0.624997443034099   1.0000000
B2   B   0.222202737978783   0.111062904428745   0.124998574225590   1.0000000
B2   B   0.388833039018804   0.611166960981196   0.125052155233945   1.0000000
B2   B   0.722310754843363   0.611180751392084   0.125005135089949   1.0000000
B2   B   0.555526833116627   0.111062904428745   0.124998574225590   1.0000000
B2   B   0.388833039018804   0.611166960981196   0.624947844766055   1.0000000
B2   B   0.888888888888886   0.111111111111114   0.124991576731465   1.0000000
B2   B   0.222222222222221   0.777777777777779   0.624989045811288   1.0000000
B2   B   0.055548691859677   0.277800589353715   0.624997443034099   1.0000000
B2   B   0.388819248607916   0.277689245156637   0.624994864910051   1.0000000
B2   B   0.555526833116627   0.777797262021217   0.625001425774411   1.0000000
B2   B   0.888937095571255   0.777797262021217   0.625001425774411   1.0000000
B2   B   0.722218668468702   0.277781331531299   0.625009577484195   1.0000000
B2   B   0.055571689573489   0.777771546945367   0.125034698374805   1.0000000
B2   B   0.388866524038542   0.777771546945367   0.125034698374805   1.0000000
B2   B   0.222229329729261   0.277781331531299   0.124990422515805   1.0000000
B2   B   0.722218668468702   0.777770670270739   0.124990422515805   1.0000000
B2   B   0.555536663215385   0.277689245156637   0.125005135089949   1.0000000
B2   B   0.888918564160702   0.277800589353715   0.125002556965901   1.0000000
B2   B   0.055552654984256   0.444438643301840   0.624985430218187   1.0000000
B2   B   0.222228453054633   0.944428310426511   0.624965301625195   1.0000000
B2   B   0.555561356698160   0.944447345015744   0.624985430218187   1.0000000
B2   B   0.388819248607916   0.444463336784615   0.624994864910051   1.0000000
B2   B   0.888918564160702   0.944451308140323   0.624997443034099   1.0000000
B2   B   0.055552654984256   0.944447345015744   0.125014569781813   1.0000000
B2   B   0.722310754843363   0.444463336784615   0.624994864910051   1.0000000
B2   B   0.388866524038542   0.944428310426511   0.125034698374805   1.0000000
B2   B   0.222202737978783   0.444473166883373   0.124998574225590   1.0000000
B2   B   0.222228453054633   0.611133475961458   0.125034698374805   1.0000000
B2   B   0.555555555555557   0.444444444444443   0.124207222928491   1.0000000
B2   B   0.722199410646285   0.944451308140323   0.125002556965901   1.0000000
B2   B   0.888937095571255   0.444473166883373   0.124998574225590   1.0000000
B2   B   0.055571689573489   0.611133475961458   0.624965301625195   1.0000000
B2   B   0.222202737978783   0.111062904428745   0.625001425774411   1.0000000
B2   B   0.722310754843363   0.611180751392084   0.624994864910051   1.0000000
B2   B   0.555526833116627   0.111062904428745   0.625001425774411   1.0000000
B2   B   0.888888888888886   0.111111111111114   0.625008423268535   1.0000000


