data_1
_audit_creation_method   'vasp2cif'
_cell_length_a    17.52789999999977
_cell_length_b    17.52789999999977
_cell_length_c    15.0
_cell_angle_alpha    90.0
_cell_angle_beta    90.0
_cell_angle_gamma    119.99999999999916

_symmetry_space_group_name_H-M    'P 1'
loop_
_atom_site_label
_atom_site_type_symbol
_atom_site_fract_x
_atom_site_fract_y
_atom_site_fract_z
_atom_site_occupancy
B2   B   0.903456905921503   0.951107212795145   0.110974196488089   1.0000000
B2   B   0.904843004644827   0.094568154621377   0.111059501894923   1.0000000
B2   B   0.905636927536492   0.237624755909109   0.111084388867835   1.0000000
B2   B   0.906387050174339   0.380747674797261   0.111111382400628   1.0000000
B2   B   0.906454978367687   0.523879494975858   0.111095508053963   1.0000000
B2   B   0.903928881830499   0.666464380274020   0.111050067538256   1.0000000
B2   B   0.902203318726674   0.807697163092796   0.110958233592529   1.0000000
B2   B   0.046596293501834   0.952337948463207   0.110993464575721   1.0000000
B2   B   0.047788860299438   0.095657788023571   0.111023396203335   1.0000000
B2   B   0.048293206761611   0.238424721213821   0.111018487514788   1.0000000
B2   B   0.048313879128128   0.381360959943192   0.111035354655408   1.0000000
B2   B   0.048125154228971   0.524607993298250   0.111064261545558   1.0000000
B2   B   0.047207580576242   0.667601399912502   0.111028420162925   1.0000000
B2   B   0.046831396644384   0.810192902866734   0.110976722731530   1.0000000
B2   B   0.190488898251041   0.954026426853349   0.110977585774235   1.0000000
B2   B   0.190662395997105   0.096427594003263   0.111084627316264   1.0000000
B2   B   0.192120791439083   0.240418276767900   0.111030730591861   1.0000000
B2   B   0.190811259925195   0.382536790990829   0.110944664611252   1.0000000
B2   B   0.189839363446365   0.525354389845454   0.110988007462299   1.0000000
B2   B   0.189612164875215   0.668369234441376   0.111048984010170   1.0000000
B2   B   0.190010732616822   0.811218841356213   0.110988463042456   1.0000000
B2   B   0.333554397975019   0.954497951593154   0.111014588986618   1.0000000
B2   B   0.334663771196334   0.097770305833333   0.111112397688805   1.0000000
B2   B   0.335159657132055   0.239647878070912   0.111028109305897   1.0000000
B2   B   0.336771606269534   0.386760945125048   0.110838502586486   1.0000000
B2   B   0.331546395499629   0.527972947156865   0.110950972912682   1.0000000
B2   B   0.331539009444573   0.669429649989749   0.111035888063896   1.0000000
B2   B   0.332744160349919   0.811749556854140   0.111071166246512   1.0000000
B2   B   0.476300240504477   0.953689649399123   0.110994127321515   1.0000000
B2   B   0.477374695888301   0.096652211420191   0.110998665972083   1.0000000
B2   B   0.479518583098834   0.241821793995083   0.111141684176785   1.0000000
B2   B   0.472778703326996   0.669433980260106   0.110900741692545   1.0000000
B2   B   0.475376893975174   0.811267060107451   0.110990155044557   1.0000000
B2   B   0.618963489243836   0.951958949724264   0.111009746445405   1.0000000
B2   B   0.619819888842634   0.094836459295594   0.111013890322042   1.0000000
B2   B   0.620848077367548   0.237383426773230   0.110966856538745   1.0000000
B2   B   0.623022018493493   0.379175142429534   0.110775136551280   1.0000000
B2   B   0.616838857295378   0.512384077009944   0.111753866473625   1.0000000
B2   B   0.614163562227302   0.661204458569258   0.110951694353561   1.0000000
B2   B   0.617697563657388   0.808298077913571   0.110889385459967   1.0000000
B2   B   0.761228314407390   0.951022985765836   0.111004782609471   1.0000000
B2   B   0.762347904586526   0.094358249149596   0.111073021656097   1.0000000
B2   B   0.763243375313454   0.237269178538429   0.111057889539956   1.0000000
B2   B   0.764738288299838   0.380103575891510   0.110967759535745   1.0000000
B2   B   0.765042994392475   0.522863412709828   0.110774647385994   1.0000000
B2   B   0.757135161522903   0.662012832257022   0.110965180976089   1.0000000
B2   B   0.758906748120296   0.806413526955476   0.110905683737604   1.0000000
N2   N   0.950847780501671   0.903565200771089   0.110949368726236   1.0000000
N2   N   0.952056521410773   0.046855905146565   0.110996147370164   1.0000000
N2   N   0.952941358496341   0.189948306438385   0.111048222267795   1.0000000
N2   N   0.953531794482628   0.332953711122655   0.111071498126241   1.0000000
N2   N   0.953821782312269   0.476204784220053   0.111113917198045   1.0000000
N2   N   0.952568743840072   0.619473158463897   0.111073464330904   1.0000000
N2   N   0.951525245385031   0.761888387733140   0.111002723911340   1.0000000
N2   N   0.094785192964052   0.905481876333694   0.110949861734781   1.0000000
N2   N   0.094811724274743   0.047764462263345   0.111025039203842   1.0000000
N2   N   0.095991191403605   0.191286480611780   0.111009969064523   1.0000000
N2   N   0.095570776504693   0.333789709634701   0.110969376812498   1.0000000
N2   N   0.095207063553624   0.476819851634416   0.111002006781700   1.0000000
N2   N   0.094837406892483   0.620067212844976   0.111023862697574   1.0000000
N2   N   0.094790293847151   0.762986976075326   0.110957295327592   1.0000000
N2   N   0.237964712766129   0.906318329748196   0.110955630597754   1.0000000
N2   N   0.238446893260914   0.049031848996205   0.111042921979920   1.0000000
N2   N   0.238140139419784   0.191420589477012   0.111076250089662   1.0000000
N2   N   0.239199119308046   0.336483073694129   0.110948895073249   1.0000000
N2   N   0.236855433396324   0.477878367220119   0.110916200725921   1.0000000
N2   N   0.236687422080665   0.620795318658878   0.111019190267502   1.0000000
N2   N   0.237472764517253   0.763646658286185   0.111041272653761   1.0000000
N2   N   0.380887687074563   0.906561699851782   0.111012821786215   1.0000000
N2   N   0.381592333598650   0.049099741894939   0.111014531663269   1.0000000
N2   N   0.382547015427874   0.192134731976286   0.111209161054662   1.0000000
N2   N   0.372780895019412   0.331571253848180   0.110525713619485   1.0000000
N2   N   0.378895844709595   0.482711332014309   0.110789221589876   1.0000000
N2   N   0.378331273863843   0.622541549183430   0.111003647726925   1.0000000
N2   N   0.380079286335363   0.764351523719962   0.111038893477936   1.0000000
N2   N   0.523715386282005   0.905876268448267   0.110989597935142   1.0000000
N2   N   0.524554466138094   0.048155634533324   0.110959794722263   1.0000000
N2   N   0.525691363269047   0.190573586310260   0.111009361760202   1.0000000
N2   N   0.531551868128211   0.332843826981074   0.110956426294627   1.0000000
N2   N   0.518599024827273   0.622522829140835   0.110747501662593   1.0000000
N2   N   0.522702627970497   0.763845791130276   0.110887753992167   1.0000000
N2   N   0.666084229127420   0.903753244117548   0.110957410584445   1.0000000
N2   N   0.667207535936090   0.046872711086599   0.111030028225587   1.0000000
N2   N   0.668341103849572   0.189335405804259   0.111005965972611   1.0000000
N2   N   0.671049067893165   0.331594789005710   0.110835289132355   1.0000000
N2   N   0.673300760353736   0.474268514643098   0.110534316484994   1.0000000
N2   N   0.660677190083971   0.612148744129028   0.111124745232579   1.0000000
N2   N   0.663176682201972   0.758391326534537   0.110853218758800   1.0000000
N2   N   0.807848690210827   0.902590304133955   0.110941753723457   1.0000000
N2   N   0.809562537141199   0.046452990727246   0.111050096649526   1.0000000
N2   N   0.810618501038379   0.189477131350441   0.111066838484579   1.0000000
N2   N   0.812023366202818   0.332358768078443   0.111071673931200   1.0000000
N2   N   0.812894320517673   0.475555482010870   0.110950371254457   1.0000000
N2   N   0.809355928674109   0.618451878389087   0.110959546008388   1.0000000
N2   N   0.806328022913937   0.758773773057739   0.110896268409642   1.0000000
O2   O   0.471948801394933   0.529576384030720   0.110983155617107   1.0000000
O2   O   0.532556079783934   0.451476632103519   0.113614635007905   1.0000000


