data_1
_audit_creation_method   'vasp2cif'
_cell_length_a    14.93631414619966
_cell_length_b    14.936314146199727
_cell_length_c    13.341276283792837
_cell_angle_alpha    90.0
_cell_angle_beta    90.0
_cell_angle_gamma    119.99999999999984

_symmetry_space_group_name_H-M    'P 1'
loop_
_atom_site_label
_atom_site_type_symbol
_atom_site_fract_x
_atom_site_fract_y
_atom_site_fract_z
_atom_site_occupancy
Sb2   Sb   0.494689149948646   0.414011241640987   0.375000000000000   1.0000000
N2   N   0.111672924782735   0.055826556992047   0.125019667383888   1.0000000
N2   N   0.611733059473078   0.555947964443377   0.126902119785566   1.0000000
N2   N   0.444953726514085   0.055785562474280   0.124910203236767   1.0000000
N2   N   0.944958797043957   0.555813633045594   0.125035947255845   1.0000000
N2   N   0.778325141789559   0.055829237561443   0.124884619253319   1.0000000
N2   N   0.111611030688417   0.722472182010874   0.624828732781866   1.0000000
N2   N   0.444953726514085   0.722501497373151   0.625089796763235   1.0000000
N2   N   0.278389764712986   0.222499418548172   0.622407188592216   1.0000000
N2   N   0.778336996281952   0.722527710051430   0.625178105184191   1.0000000
N2   N   0.611638082925821   0.222444529096371   0.625042644226085   1.0000000
N2   N   0.945022200290025   0.222510626967349   0.625108644112065   1.0000000
N2   N   0.278276906862653   0.722480455175775   0.124999649679118   1.0000000
N2   N   0.111749574212883   0.222541453773106   0.125488081998547   1.0000000
N2   N   0.444997110664152   0.222469097950871   0.127446348741601   1.0000000
N2   N   0.611638082925821   0.722526887162764   0.124957355773917   1.0000000
N2   N   0.944958797043957   0.722478497331697   0.125035947255845   1.0000000
N2   N   0.778318434244477   0.222479545567089   0.124715965586943   1.0000000
N2   N   0.111624208148026   0.889134846208532   0.624982567733435   1.0000000
N2   N   0.444942478548166   0.889137905940747   0.625237903002398   1.0000000
N2   N   0.278389764712986   0.389223679498140   0.622407188592216   1.0000000
N2   N   0.611733059473078   0.389118428363039   0.623097880214441   1.0000000
N2   N   0.778318434244477   0.889172222010717   0.625284034413055   1.0000000
N2   N   0.944991722220260   0.389156794319010   0.625193102023909   1.0000000
N2   N   0.111672924782735   0.389179701124017   0.125019667383888   1.0000000
N2   N   0.278276906862653   0.889129785020209   0.124999649679118   1.0000000
N2   N   0.611629027945684   0.889164345391035   0.124685168842741   1.0000000
N2   N   0.445200074505443   0.389266703919385   0.135192201787288   1.0000000
N2   N   0.944991722220260   0.889168261234574   0.124806897976090   1.0000000
N2   N   0.778336996281952   0.389142619563850   0.124821894815809   1.0000000
N2   N   0.278305277289770   0.555838732554679   0.624534573538515   1.0000000
N2   N   0.111672924782735   0.055826556992047   0.624980332616113   1.0000000
N2   N   0.611733059473078   0.555947964443377   0.623097880214441   1.0000000
N2   N   0.444953726514085   0.055785562474280   0.625089796763235   1.0000000
N2   N   0.944958797043957   0.555813633045594   0.624964052744153   1.0000000
N2   N   0.111624208148026   0.555822695272829   0.125017432266571   1.0000000
N2   N   0.778325141789559   0.055829237561443   0.625115380746680   1.0000000
N2   N   0.278305277289770   0.055799878068422   0.125465426461483   1.0000000
N2   N   0.444997110664152   0.555861346046620   0.127446348741601   1.0000000
N2   N   0.778296614347533   0.555814973840440   0.125312636173152   1.0000000
N2   N   0.611629027945684   0.055798015887980   0.124685168842741   1.0000000
N2   N   0.444997110664152   0.555861346046620   0.622553651258406   1.0000000
N2   N   0.945022200290025   0.055844906656014   0.124891355887939   1.0000000
N2   N   0.278276906862653   0.722480455175775   0.625000350320884   1.0000000
N2   N   0.111749574212883   0.222541453773106   0.624511918001452   1.0000000
N2   N   0.444997110664152   0.222469097950871   0.622553651258406   1.0000000
N2   N   0.611638082925821   0.722526887162764   0.625042644226085   1.0000000
N2   N   0.944958797043957   0.722478497331697   0.624964052744153   1.0000000
N2   N   0.778318434244477   0.222479545567089   0.625284034413055   1.0000000
N2   N   0.111611030688417   0.722472182010874   0.125171267218137   1.0000000
N2   N   0.444953726514085   0.722501497373151   0.124910203236767   1.0000000
N2   N   0.278389764712986   0.222499418548172   0.127592811407787   1.0000000
N2   N   0.778336996281952   0.722527710051430   0.124821894815809   1.0000000
N2   N   0.611638082925821   0.222444529096371   0.124957355773917   1.0000000
N2   N   0.945022200290025   0.222510626967349   0.124891355887939   1.0000000
N2   N   0.111672924782735   0.389179701124017   0.624980332616113   1.0000000
N2   N   0.278276906862653   0.889129785020209   0.625000350320884   1.0000000
N2   N   0.611629027945684   0.889164345391035   0.625314831157259   1.0000000
N2   N   0.445200074505443   0.389266703919385   0.614807798212709   1.0000000
N2   N   0.944991722220260   0.889168261234574   0.625193102023909   1.0000000
N2   N   0.111624208148026   0.889134846208532   0.125017432266571   1.0000000
N2   N   0.778336996281952   0.389142619563850   0.625178105184191   1.0000000
N2   N   0.444942478548166   0.889137905940747   0.124762096997604   1.0000000
N2   N   0.278389764712986   0.389223679498140   0.127592811407787   1.0000000
N2   N   0.278305277289770   0.555838732554679   0.125465426461483   1.0000000
N2   N   0.611733059473078   0.389118428363039   0.126902119785566   1.0000000
N2   N   0.778318434244477   0.889172222010717   0.124715965586943   1.0000000
N2   N   0.944991722220260   0.389156794319010   0.124806897976090   1.0000000
N2   N   0.111624208148026   0.555822695272829   0.624982567733435   1.0000000
N2   N   0.278305277289770   0.055799878068422   0.624534573538515   1.0000000
N2   N   0.778296614347533   0.555814973840440   0.624687363826852   1.0000000
N2   N   0.611629027945684   0.055798015887980   0.625314831157259   1.0000000
N2   N   0.945022200290025   0.055844906656014   0.625108644112065   1.0000000
N2   N   0.056208490064329   0.111648548851506   0.375000000000000   1.0000000
N2   N   0.553403745382158   0.623185847064319   0.375000000000000   1.0000000
N2   N   0.384907099511330   0.102597850356416   0.375000000000000   1.0000000
N2   N   0.881799843483829   0.607566588408583   0.375000000000000   1.0000000
N2   N   0.722032260866788   0.109705460746364   0.375000000000000   1.0000000
N2   N   0.055881842570787   0.777944525119314   0.875000000000000   1.0000000
N2   N   0.389230088957759   0.777944262689780   0.875000000000000   1.0000000
N2   N   0.222568213608680   0.277950773471011   0.875000000000000   1.0000000
N2   N   0.722548593392329   0.777942223971422   0.875000000000000   1.0000000
N2   N   0.555877932698699   0.277944172605647   0.875000000000000   1.0000000
N2   N   0.889223064270553   0.277941871378795   0.875000000000000   1.0000000
N2   N   0.217340845938583   0.775337089635956   0.375000000000000   1.0000000
N2   N   0.056208490064329   0.277893274546160   0.375000000000000   1.0000000
N2   N   0.387294130527756   0.266794485861700   0.375000000000000   1.0000000
N2   N   0.553472329381022   0.782551265667543   0.375000000000000   1.0000000
N2   N   0.886034614432819   0.777293976941289   0.375000000000000   1.0000000
N2   N   0.721534920685650   0.273978548343287   0.375000000000000   1.0000000
N2   N   0.055890088280710   0.944617443595616   0.875000000000000   1.0000000
N2   N   0.389230088957759   0.944619159601316   0.875000000000000   1.0000000
N2   N   0.222566160990320   0.444604578471193   0.875000000000000   1.0000000
N2   N   0.555858604960871   0.444595969147100   0.875000000000000   1.0000000
N2   N   0.722556683601277   0.944613503604219   0.875000000000000   1.0000000
N2   N   0.889213579390276   0.444602682499810   0.875000000000000   1.0000000
N2   N   0.053294717698895   0.443529202290777   0.375000000000000   1.0000000
N2   N   0.217786960612490   0.940599632865816   0.375000000000000   1.0000000
N2   N   0.553496872819918   0.943415103076616   0.375000000000000   1.0000000
N2   N   0.387294130527756   0.453832977999388   0.375000000000000   1.0000000
N2   N   0.888854335916208   0.945477082369668   0.375000000000000   1.0000000
N2   N   0.717422293355660   0.438796068620147   0.375000000000000   1.0000000
N2   N   0.222563874904421   0.611270984771790   0.875000000000000   1.0000000
N2   N   0.055894933571779   0.111283681486717   0.875000000000000   1.0000000
N2   N   0.555877932698699   0.611267093426381   0.875000000000000   1.0000000
N2   N   0.389234295396023   0.111299885457021   0.875000000000000   1.0000000
N2   N   0.889202293127198   0.611267813230275   0.875000000000000   1.0000000
N2   N   0.050337028045682   0.608906333331125   0.375000000000000   1.0000000
N2   N   0.722556683601277   0.111276513330396   0.875000000000000   1.0000000
N2   N   0.220384568364384   0.108557740123726   0.375000000000000   1.0000000
N2   N   0.384907099511330   0.615642582488257   0.375000000000000   1.0000000
N2   N   0.717422293355660   0.611959558068847   0.375000000000000   1.0000000
N2   N   0.553472329381022   0.104254397046818   0.375000000000000   1.0000000
N2   N   0.389234295396023   0.611267743272342   0.875000000000000   1.0000000
N2   N   0.889517897894356   0.111425615613851   0.375000000000000   1.0000000
N2   N   0.222558136439536   0.777945734886435   0.875000000000000   1.0000000
N2   N   0.055894933571779   0.277944585418397   0.875000000000000   1.0000000
N2   N   0.389230999339403   0.277964892094610   0.875000000000000   1.0000000
N2   N   0.555889284693224   0.777943701490562   0.875000000000000   1.0000000
N2   N   0.889213579390276   0.777944230223795   0.875000000000000   1.0000000
N2   N   0.722548593392329   0.277939702754237   0.875000000000000   1.0000000
N2   N   0.050337028045682   0.774764028047890   0.375000000000000   1.0000000
N2   N   0.384990812191669   0.777918902453273   0.375000000000000   1.0000000
N2   N   0.224475693383204   0.278904513358275   0.375000000000000   1.0000000
N2   N   0.721534920685650   0.780889705675705   0.375000000000000   1.0000000
N2   N   0.553403745382158   0.263551231651175   0.375000000000000   1.0000000
N2   N   0.888854335916208   0.276710586879871   0.375000000000000   1.0000000
N2   N   0.055890088280710   0.444605978018414   0.875000000000000   1.0000000
N2   N   0.222563874904421   0.944626223465969   0.875000000000000   1.0000000
N2   N   0.555891216721308   0.944612275027319   0.875000000000000   1.0000000
N2   N   0.389230999339403   0.444599440578131   0.875000000000000   1.0000000
N2   N   0.889223064270553   0.944614526225097   0.875000000000000   1.0000000
N2   N   0.053294717698895   0.943098848741451   0.375000000000000   1.0000000
N2   N   0.722533509803574   0.444599290978009   0.875000000000000   1.0000000
N2   N   0.384990812191669   0.940405243071722   0.375000000000000   1.0000000
N2   N   0.220384568364384   0.445160161573994   0.375000000000000   1.0000000
N2   N   0.217786960612490   0.610520661080005   0.375000000000000   1.0000000
N2   N   0.722032260866788   0.945660133453770   0.375000000000000   1.0000000
N2   N   0.886034614432819   0.442073970824858   0.375000000000000   1.0000000
N2   N   0.055881842570787   0.611270650784814   0.875000000000000   1.0000000
N2   N   0.222566160990320   0.111294915852460   0.875000000000000   1.0000000
N2   N   0.722533509803574   0.611267552158902   0.875000000000000   1.0000000
N2   N   0.555889284693224   0.111278916536009   0.875000000000000   1.0000000
N2   N   0.889227231274581   0.111280282303964   0.875000000000000   1.0000000
B2   B   0.109563770124761   0.054140189620190   0.375000000000000   1.0000000
B2   B   0.609754719259778   0.573166986611277   0.375000000000000   1.0000000
B2   B   0.442071501221712   0.049518879153636   0.375000000000000   1.0000000
B2   B   0.939403628437143   0.553087940811025   0.375000000000000   1.0000000
B2   B   0.778583772132285   0.055958552732809   0.375000000000000   1.0000000
B2   B   0.111443751318002   0.722388542325670   0.875000000000000   1.0000000
B2   B   0.444779951157337   0.722417503836989   0.875000000000000   1.0000000
B2   B   0.278054493735339   0.222352269525617   0.875000000000000   1.0000000
B2   B   0.778140268729416   0.722440059716170   0.875000000000000   1.0000000
B2   B   0.611463493955629   0.222347718287177   0.875000000000000   1.0000000
B2   B   0.944767680797310   0.222375436017337   0.875000000000000   1.0000000
B2   B   0.273685301879913   0.721273344021155   0.375000000000000   1.0000000
B2   B   0.112342215068387   0.222837774200858   0.375000000000000   1.0000000
B2   B   0.440932985589213   0.210394870377572   0.375000000000000   1.0000000
B2   B   0.611207671242567   0.731890686370555   0.375000000000000   1.0000000
B2   B   0.939403628437143   0.719649020959459   0.375000000000000   1.0000000
B2   B   0.778316933998294   0.220111476954410   0.375000000000000   1.0000000
B2   B   0.111436707434059   0.889056299263048   0.875000000000000   1.0000000
B2   B   0.444785933358174   0.889059633345750   0.875000000000000   1.0000000
B2   B   0.278054493735339   0.389035557543052   0.875000000000000   1.0000000
B2   B   0.611471485645726   0.389017786662388   0.875000000000000   1.0000000
B2   B   0.778129634113467   0.889095502299555   0.875000000000000   1.0000000
B2   B   0.944783008272842   0.389036766448530   0.875000000000000   1.0000000
B2   B   0.109563770124761   0.388756913837901   0.375000000000000   1.0000000
B2   B   0.273685301879913   0.885745291192087   0.375000000000000   1.0000000
B2   B   0.610890691249269   0.891690413476487   0.375000000000000   1.0000000
B2   B   0.942734731476094   0.888660637059952   0.375000000000000   1.0000000
B2   B   0.776012644848920   0.384982524620265   0.375000000000000   1.0000000
B2   B   0.278092859409795   0.555723723436471   0.875000000000000   1.0000000
B2   B   0.111420278143489   0.055712475774990   0.875000000000000   1.0000000
B2   B   0.611471485645726   0.555787032316659   0.875000000000000   1.0000000
B2   B   0.444779951157337   0.055695780653690   0.875000000000000   1.0000000
B2   B   0.944793714155416   0.555718031010750   0.875000000000000   1.0000000
B2   B   0.106872149539769   0.554325405381060   0.375000000000000   1.0000000
B2   B   0.778123688214140   0.055728510773739   0.875000000000000   1.0000000
B2   B   0.273766890863940   0.050750068898997   0.375000000000000   1.0000000
B2   B   0.440932985589213   0.563871448544976   0.375000000000000   1.0000000
B2   B   0.770645240026527   0.551989286679929   0.375000000000000   1.0000000
B2   B   0.610890691249269   0.052533611106108   0.375000000000000   1.0000000
B2   B   0.444763594693490   0.555748722053320   0.875000000000000   1.0000000
B2   B   0.945170112441970   0.056421015418104   0.375000000000000   1.0000000
B2   B   0.278107864511592   0.722392458293513   0.875000000000000   1.0000000
B2   B   0.111402923618097   0.222368128475713   0.875000000000000   1.0000000
B2   B   0.444763594693490   0.222348205973506   0.875000000000000   1.0000000
B2   B   0.611463493955629   0.722449109001783   0.875000000000000   1.0000000
B2   B   0.944793714155416   0.722409016478000   0.875000000000000   1.0000000
B2   B   0.778129634113467   0.222367465147242   0.875000000000000   1.0000000
B2   B   0.106233792393725   0.719783562863523   0.375000000000000   1.0000000
B2   B   0.442071501221712   0.725885955401416   0.375000000000000   1.0000000
B2   B   0.276801986071496   0.219550145225924   0.375000000000000   1.0000000
B2   B   0.776012644848920   0.724363453561978   0.375000000000000   1.0000000
B2   B   0.611207671242567   0.212650318205339   0.375000000000000   1.0000000
B2   B   0.945170112441970   0.222082430357202   0.375000000000000   1.0000000
B2   B   0.111420278143489   0.389041135701822   0.875000000000000   1.0000000
B2   B   0.278107864511592   0.889048739551404   0.875000000000000   1.0000000
B2   B   0.611463573235666   0.889086162812612   0.875000000000000   1.0000000
B2   B   0.444717416209509   0.389025374771419   0.875000000000000   1.0000000
B2   B   0.944783008272842   0.889079575157631   0.875000000000000   1.0000000
B2   B   0.106872149539769   0.885880077492034   0.375000000000000   1.0000000
B2   B   0.778140268729416   0.389033542346573   0.875000000000000   1.0000000
B2   B   0.442058137033905   0.887695735183622   0.375000000000000   1.0000000
B2   B   0.276801986071496   0.390585174178900   0.375000000000000   1.0000000
B2   B   0.273766890863940   0.556350155298280   0.375000000000000   1.0000000
B2   B   0.609754719259778   0.369921065981827   0.375000000000000   1.0000000
B2   B   0.778316933998294   0.891538790377212   0.375000000000000   1.0000000
B2   B   0.942734731476094   0.387407427749483   0.375000000000000   1.0000000
B2   B   0.111436707434059   0.555713741504355   0.875000000000000   1.0000000
B2   B   0.278092859409795   0.055702469306658   0.875000000000000   1.0000000
B2   B   0.778140337757939   0.555736835545634   0.875000000000000   1.0000000
B2   B   0.611463573235666   0.055710743756386   0.875000000000000   1.0000000
B2   B   0.944767680797310   0.055725578113307   0.875000000000000   1.0000000
B2   B   0.056083842256019   0.111358128010519   0.124941599810627   1.0000000
B2   B   0.556128513754679   0.611644617206096   0.125969024474543   1.0000000
B2   B   0.389293597412041   0.111100292128207   0.125491566850877   1.0000000
B2   B   0.889590509964369   0.611461921648854   0.124810598812299   1.0000000
B2   B   0.722766596689371   0.111337277720812   0.124601122617605   1.0000000
B2   B   0.056119590342960   0.778049034304678   0.625094399991008   1.0000000
B2   B   0.389338932528764   0.778071717895523   0.625344271518354   1.0000000
B2   B   0.222686195813896   0.278009764573611   0.623208354850300   1.0000000
B2   B   0.722835903608027   0.778196098372936   0.625509351664658   1.0000000
B2   B   0.556128513754679   0.277817229881908   0.624030975525466   1.0000000
B2   B   0.889468917808538   0.278037993755851   0.625372859822227   1.0000000
B2   B   0.222702459929150   0.778017896631240   0.124892710725091   1.0000000
B2   B   0.056083842256019   0.278059047578837   0.124941599810627   1.0000000
B2   B   0.389148904503246   0.277508171715597   0.129759973230564   1.0000000
B2   B   0.556058042190617   0.778162472561915   0.124565264727642   1.0000000
B2   B   0.889549943021279   0.778152012692455   0.124620000016969   1.0000000
B2   B   0.722835903608027   0.277973138568421   0.124490648335342   1.0000000
B2   B   0.056093464774565   0.944694822213663   0.625265907427277   1.0000000
B2   B   0.389338932528764   0.944600547966584   0.625344271518354   1.0000000
B2   B   0.222658073782509   0.444773411970973   0.624347752566425   1.0000000
B2   B   0.556662916713553   0.444998125023444   0.621456788266201   1.0000000
B2   B   0.722766596689371   0.944762652301888   0.625398877382387   1.0000000
B2   B   0.889549943021279   0.444731263662165   0.625379999983030   1.0000000
B2   B   0.056093464774565   0.444731975894228   0.124734092572720   1.0000000
B2   B   0.222682973252102   0.944594980880610   0.124909005404431   1.0000000
B2   B   0.556044871861591   0.944689102597464   0.124523828741851   1.0000000
B2   B   0.389148904503246   0.444974066120984   0.129759973230564   1.0000000
B2   B   0.889468917808538   0.944764257386025   0.124627140177776   1.0000000
B2   B   0.723058321167799   0.444770601952677   0.125039669783131   1.0000000
B2   B   0.222682973252102   0.611421325704832   0.625090994595570   1.0000000
B2   B   0.056083842256019   0.111358128010519   0.625058400189376   1.0000000
B2   B   0.556128513754679   0.611644617206096   0.624030975525466   1.0000000
B2   B   0.389293597412041   0.111100292128207   0.624508433149128   1.0000000
B2   B   0.889590509964369   0.611461921648854   0.625189401187700   1.0000000
B2   B   0.056119590342960   0.611403889371619   0.124905600008989   1.0000000
B2   B   0.722766596689371   0.111337277720812   0.625398877382387   1.0000000
B2   B   0.222658073782509   0.111217995144874   0.125652247433578   1.0000000
B2   B   0.389293597412041   0.611526638617182   0.125491566850877   1.0000000
B2   B   0.723058321167799   0.611621052548459   0.125039669783131   1.0000000
B2   B   0.556058042190617   0.111228902962040   0.124565264727642   1.0000000
B2   B   0.389293597412041   0.611526638617182   0.624508433149128   1.0000000
B2   B   0.889443472364136   0.111388402848737   0.124762384263149   1.0000000
B2   B   0.222702459929150   0.778017896631240   0.625107289274906   1.0000000
B2   B   0.056083842256019   0.278059047578837   0.625058400189376   1.0000000
B2   B   0.389148904503246   0.277508171715597   0.620240026769434   1.0000000
B2   B   0.556058042190617   0.778162472561915   0.625434735272363   1.0000000
B2   B   0.889549943021279   0.778152012692455   0.625379999983030   1.0000000
B2   B   0.722835903608027   0.277973138568421   0.625509351664658   1.0000000
B2   B   0.056119590342960   0.778049034304678   0.124905600008989   1.0000000
B2   B   0.389338932528764   0.778071717895523   0.124655728481644   1.0000000
B2   B   0.222686195813896   0.278009764573611   0.126791645149698   1.0000000
B2   B   0.722835903608027   0.778196098372936   0.124490648335342   1.0000000
B2   B   0.556128513754679   0.277817229881908   0.125969024474543   1.0000000
B2   B   0.889468917808538   0.278037993755851   0.124627140177776   1.0000000
B2   B   0.056093464774565   0.444731975894228   0.625265907427277   1.0000000
B2   B   0.222682973252102   0.944594980880610   0.625090994595570   1.0000000
B2   B   0.556044871861591   0.944689102597464   0.625476171258152   1.0000000
B2   B   0.389148904503246   0.444974066120984   0.620240026769434   1.0000000
B2   B   0.889468917808538   0.944764257386025   0.625372859822227   1.0000000
B2   B   0.056093464774565   0.944694822213663   0.124734092572720   1.0000000
B2   B   0.723058321167799   0.444770601952677   0.624960330216868   1.0000000
B2   B   0.389338932528764   0.944600547966584   0.124655728481644   1.0000000
B2   B   0.222658073782509   0.444773411970973   0.125652247433578   1.0000000
B2   B   0.222682973252102   0.611421325704832   0.124909005404431   1.0000000
B2   B   0.556662916713553   0.444998125023444   0.128543211733794   1.0000000
B2   B   0.722766596689371   0.944762652301888   0.124601122617605   1.0000000
B2   B   0.889549943021279   0.444731263662165   0.124620000016969   1.0000000
B2   B   0.056119590342960   0.611403889371619   0.625094399991008   1.0000000
B2   B   0.222658073782509   0.111217995144874   0.624347752566425   1.0000000
B2   B   0.723058321167799   0.611621052548459   0.624960330216868   1.0000000
B2   B   0.556058042190617   0.111228902962040   0.625434735272363   1.0000000
B2   B   0.889443472364136   0.111388402848737   0.625237615736849   1.0000000


