data_1
_audit_creation_method   'vasp2cif'
_cell_length_a    17.52789999999977
_cell_length_b    17.52789999999977
_cell_length_c    15.0
_cell_angle_alpha    90.0
_cell_angle_beta    90.0
_cell_angle_gamma    119.99999999999916

_symmetry_space_group_name_H-M    'P 1'
loop_
_atom_site_label
_atom_site_type_symbol
_atom_site_fract_x
_atom_site_fract_y
_atom_site_fract_z
_atom_site_occupancy
B2   B   0.903654576924156   0.950746777329329   0.109963053773788   1.0000000
B2   B   0.905575489087347   0.094426279783655   0.110330750196804   1.0000000
B2   B   0.906209817049967   0.237405093991741   0.111532761806544   1.0000000
B2   B   0.906116870689591   0.380314515610959   0.113557114437420   1.0000000
B2   B   0.904648350801063   0.523069265379179   0.114298320812764   1.0000000
B2   B   0.902205346134487   0.665234858491490   0.112942954441819   1.0000000
B2   B   0.901020350354338   0.806535921417062   0.110683884189358   1.0000000
B2   B   0.047218441286064   0.952783280869936   0.110221677314463   1.0000000
B2   B   0.049254928437670   0.096347125267845   0.109963054963791   1.0000000
B2   B   0.049768945501513   0.238787254720832   0.110235409580833   1.0000000
B2   B   0.049029499221495   0.381212690731120   0.111359544703581   1.0000000
B2   B   0.047392520467667   0.524065479003874   0.112427574348648   1.0000000
B2   B   0.046128283170707   0.666870386752448   0.112346714100248   1.0000000
B2   B   0.046036897620852   0.809591522327302   0.111161418805079   1.0000000
B2   B   0.190410220692698   0.953964854418152   0.111161415269077   1.0000000
B2   B   0.193465788892940   0.098981393102660   0.110683882128358   1.0000000
B2   B   0.195003353412556   0.242089366789847   0.109820938540933   1.0000000
B2   B   0.193126273434111   0.382923958118285   0.109318864495834   1.0000000
B2   B   0.189948481141085   0.525056242237179   0.110795489600962   1.0000000
B2   B   0.188920174133163   0.667804375455394   0.111320358834356   1.0000000
B2   B   0.189340981205593   0.810660655132398   0.111445144681809   1.0000000
B2   B   0.333131280709553   0.953873358188292   0.112346711217249   1.0000000
B2   B   0.334766893355505   0.097796393614509   0.112942953437822   1.0000000
B2   B   0.341023785432772   0.246284077908028   0.112173619910340   1.0000000
B2   B   0.341064076257834   0.388121843033291   0.105148785812591   1.0000000
B2   B   0.332340056840125   0.527768882255321   0.104076537580892   1.0000000
B2   B   0.331079330732375   0.668922491879624   0.108244195773295   1.0000000
B2   B   0.332197276570600   0.811081510453835   0.111320357052358   1.0000000
B2   B   0.475936164912126   0.952609070983336   0.112427579644650   1.0000000
B2   B   0.476932455041818   0.095353318423937   0.114298334832766   1.0000000
B2   B   0.478584096287206   0.238767036300968   0.116122611152077   1.0000000
B2   B   0.493567257937345   0.393091373502075   0.116138499218526   1.0000000
B2   B   0.472232846733677   0.667661705410871   0.104076537251889   1.0000000
B2   B   0.474945544773822   0.810053348687917   0.110795489575958   1.0000000
B2   B   0.618789054158872   0.950972228502510   0.111359547436584   1.0000000
B2   B   0.619687142426042   0.093884743216410   0.113557121655418   1.0000000
B2   B   0.620502782070488   0.236202630127734   0.116440753866145   1.0000000
B2   B   0.622152996257824   0.377848803021174   0.118679929936319   1.0000000
B2   B   0.606910360562926   0.506434377773656   0.116138499044521   1.0000000
B2   B   0.611879814592710   0.658937521676161   0.105148783398593   1.0000000
B2   B   0.617077766611713   0.806875490178889   0.109318862660836   1.0000000
B2   B   0.761214467881162   0.950232802748487   0.110235411934832   1.0000000
B2   B   0.762596606911259   0.093791871958035   0.111532761310542   1.0000000
B2   B   0.763282772941775   0.236718850289226   0.114204088719083   1.0000000
B2   B   0.763799102252265   0.379498942556510   0.116440747289148   1.0000000
B2   B   0.761234832794033   0.521417675697799   0.116122603918077   1.0000000
B2   B   0.753717711169971   0.658977907124227   0.112173621469335   1.0000000
B2   B   0.757912288879150   0.804998310289444   0.109820939560939   1.0000000
N2   N   0.950809579067622   0.902977289501345   0.110047113756178   1.0000000
N2   N   0.953099866516500   0.046901853612498   0.109929523800534   1.0000000
N2   N   0.954062556034778   0.190080995622065   0.110506092010983   1.0000000
N2   N   0.953828141793988   0.332840187522813   0.111993179940179   1.0000000
N2   N   0.952521901411812   0.475698630874589   0.113510311392514   1.0000000
N2   N   0.950822932192697   0.618440634183331   0.113295703638320   1.0000000
N2   N   0.950127440493478   0.760611509234811   0.111443570327504   1.0000000
N2   N   0.094701530712761   0.905300234860241   0.110568979989929   1.0000000
N2   N   0.097024425417656   0.049192147425374   0.110047124263180   1.0000000
N2   N   0.098553414219317   0.192409492884861   0.109946357748140   1.0000000
N2   N   0.097527805113645   0.334248232956933   0.110305277633554   1.0000000
N2   N   0.095194331186939   0.476581940884173   0.111700826626542   1.0000000
N2   N   0.093936827223587   0.619462026369650   0.112102668730964   1.0000000
N2   N   0.093878968710057   0.762327808825316   0.111511357739451   1.0000000
N2   N   0.237673858801681   0.906122683668942   0.111511356816449   1.0000000
N2   N   0.239390233937188   0.049874336861518   0.111443560120500   1.0000000
N2   N   0.243857040240295   0.195905026033173   0.110534388852498   1.0000000
N2   N   0.244034532878178   0.338161128850987   0.108454443817816   1.0000000
N2   N   0.238160599763658   0.478011736856427   0.109757246922846   1.0000000
N2   N   0.236391895923512   0.620312022346429   0.110254239376512   1.0000000
N2   N   0.236881671262820   0.763119978180173   0.111321423988266   1.0000000
N2   N   0.380539617221349   0.906064795995412   0.112102659446962   1.0000000
N2   N   0.381561071130668   0.049178698659308   0.113295709198324   1.0000000
N2   N   0.383823033313171   0.193767545194533   0.114077710703503   1.0000000
N2   N   0.393792677290142   0.345194325632282   0.111245424313742   1.0000000
N2   N   0.382897731797022   0.483909738304592   0.096487848868728   1.0000000
N2   N   0.378196971049846   0.621804783785151   0.103732187915849   1.0000000
N2   N   0.379689776426569   0.763609962931488   0.110254246258509   1.0000000
N2   N   0.523419835432833   0.904807471876060   0.111700831894542   1.0000000
N2   N   0.524303025946411   0.047479642694187   0.113510329389510   1.0000000
N2   N   0.525323511330681   0.190199497706925   0.116000673936742   1.0000000
N2   N   0.527711177692851   0.333369457725237   0.118048695090647   1.0000000
N2   N   0.470913836034794   0.529087702708198   0.073928216632143   1.0000000
N2   N   0.516091808469409   0.617103768165976   0.096487852401724   1.0000000
N2   N   0.521989999445576   0.761841213319344   0.109757241895848   1.0000000
N2   N   0.665753522269063   0.902473979042360   0.110305276338554   1.0000000
N2   N   0.667161524967184   0.046173532588010   0.111993182651176   1.0000000
N2   N   0.667978178314859   0.188850820153533   0.114995723739713   1.0000000
N2   N   0.669073666620802   0.330928091548197   0.117935026043812   1.0000000
N2   N   0.666632477241766   0.472290597334151   0.118048690247644   1.0000000
N2   N   0.654807469556717   0.606208970859861   0.111245425621738   1.0000000
N2   N   0.661840474528011   0.755967116983828   0.108454439032815   1.0000000
N2   N   0.807592190373137   0.901448293867681   0.109946359421142   1.0000000
N2   N   0.809920774212937   0.045939227127227   0.110506095476982   1.0000000
N2   N   0.810806840570115   0.189194816860885   0.112225163257138   1.0000000
N2   N   0.811150808170468   0.332023464946142   0.114995718223713   1.0000000
N2   N   0.809802227334077   0.474678206704321   0.116000654607742   1.0000000
N2   N   0.806234288354467   0.616178717732828   0.114077710073500   1.0000000
N2   N   0.804096701810828   0.756144653422707   0.110534393604494   1.0000000


