data_1
_audit_creation_method   'vasp2cif'
_cell_length_a    14.93631414619966
_cell_length_b    14.936314146199727
_cell_length_c    13.341276283792837
_cell_angle_alpha    90.0
_cell_angle_beta    90.0
_cell_angle_gamma    119.99999999999984

_symmetry_space_group_name_H-M    'P 1'
loop_
_atom_site_label
_atom_site_type_symbol
_atom_site_fract_x
_atom_site_fract_y
_atom_site_fract_z
_atom_site_occupancy
Pb2   Pb   0.444444444444443   0.388888888888886   0.375000000000000   1.0000000
N2   N   0.111099675026228   0.055532745345523   0.124520467933080   1.0000000
N2   N   0.611122757146832   0.555553884484421   0.126347042302640   1.0000000
N2   N   0.444433070319280   0.055532745345523   0.124520467933080   1.0000000
N2   N   0.944457670701649   0.555562330697367   0.124834225120823   1.0000000
N2   N   0.777777777777779   0.055555555555557   0.124747958189160   1.0000000
N2   N   0.111111111111114   0.722222222222221   0.624909005558388   1.0000000
N2   N   0.444433070319280   0.722233658307117   0.625479532066920   1.0000000
N2   N   0.277779448848913   0.222210576186496   0.623652957697370   1.0000000
N2   N   0.777800587987790   0.722233658307117   0.625479532066920   1.0000000
N2   N   0.611103905623203   0.222229427710139   0.625272002360154   1.0000000
N2   N   0.944451505154304   0.222231146479092   0.625409903518797   1.0000000
N2   N   0.277771002635939   0.722228673337657   0.124834225120823   1.0000000
N2   N   0.111125522086955   0.222229427710139   0.124727997639847   1.0000000
N2   N   0.444431127337565   0.222210576186496   0.126347042302640   1.0000000
N2   N   0.611103905623203   0.722207811246378   0.124727997639847   1.0000000
N2   N   0.944457670701649   0.722228673337657   0.124834225120823   1.0000000
N2   N   0.777779641324773   0.222231146479092   0.124590096481226   1.0000000
N2   N   0.111104659995717   0.888875662631679   0.625165774879203   1.0000000
N2   N   0.444438929855560   0.888886131594458   0.625394754003689   1.0000000
N2   N   0.277779448848913   0.388902205995763   0.623652957697370   1.0000000
N2   N   0.611122757146832   0.388902205995763   0.623652957697371   1.0000000
N2   N   0.777779641324773   0.888881828179025   0.625409903518797   1.0000000
N2   N   0.944447201738871   0.388894403477768   0.625394754003689   1.0000000
N2   N   0.111099675026228   0.388900263014048   0.124520467933080   1.0000000
N2   N   0.277771002635939   0.888875662631679   0.124834225120823   1.0000000
N2   N   0.611102186854231   0.888881828179025   0.124590096481226   1.0000000
N2   N   0.444444444444443   0.388888888888886   0.135307728307251   1.0000000
N2   N   0.944447201738871   0.888886131594458   0.124605245996308   1.0000000
N2   N   0.777800587987790   0.388900263014048   0.124520467933080   1.0000000
N2   N   0.277763783771232   0.555569549562088   0.625102029452172   1.0000000
N2   N   0.111099675026230   0.055532745345523   0.625479532066920   1.0000000
N2   N   0.611122757146832   0.555553884484421   0.623652957697370   1.0000000
N2   N   0.444433070319280   0.055532745345523   0.625479532066920   1.0000000
N2   N   0.944457670701649   0.555562330697367   0.625165774879203   1.0000000
N2   N   0.111104659995716   0.555562330697367   0.124834225120823   1.0000000
N2   N   0.777777777777779   0.055555555555557   0.625252041810826   1.0000000
N2   N   0.277763783771232   0.055527567542466   0.124897970547813   1.0000000
N2   N   0.444431127337565   0.555553884484421   0.126347042302640   1.0000000
N2   N   0.777805765790873   0.555569549562088   0.124897970547813   1.0000000
N2   N   0.611102186854231   0.055553692008549   0.124590096481226   1.0000000
N2   N   0.444431127337565   0.555553884484421   0.623652957697370   1.0000000
N2   N   0.944451505154304   0.055553692008549   0.124590096481226   1.0000000
N2   N   0.277771002635939   0.722228673337657   0.625165774879203   1.0000000
N2   N   0.111125522086955   0.222229427710139   0.625272002360154   1.0000000
N2   N   0.444431127337565   0.222210576186496   0.623652957697370   1.0000000
N2   N   0.611103905623203   0.722207811246378   0.625272002360154   1.0000000
N2   N   0.944457670701649   0.722228673337657   0.625165774879203   1.0000000
N2   N   0.777779641324773   0.222231146479092   0.625409903518797   1.0000000
N2   N   0.111111111111114   0.722222222222221   0.125090994441611   1.0000000
N2   N   0.444433070319280   0.722233658307117   0.124520467933080   1.0000000
N2   N   0.277779448848913   0.222210576186496   0.126347042302640   1.0000000
N2   N   0.777800587987791   0.722233658307117   0.124520467933081   1.0000000
N2   N   0.611103905623203   0.222229427710139   0.124727997639847   1.0000000
N2   N   0.944451505154304   0.222231146479092   0.124590096481226   1.0000000
N2   N   0.111099675026230   0.388900263014048   0.625479532066920   1.0000000
N2   N   0.277771002635939   0.888875662631679   0.625165774879203   1.0000000
N2   N   0.611102186854231   0.888881828179025   0.625409903518797   1.0000000
N2   N   0.444444444444443   0.388888888888886   0.614692271692741   1.0000000
N2   N   0.944447201738871   0.888886131594458   0.625394754003689   1.0000000
N2   N   0.111104659995716   0.888875662631679   0.124834225120823   1.0000000
N2   N   0.777800587987790   0.388900263014048   0.625479532066920   1.0000000
N2   N   0.444438929855560   0.888886131594458   0.124605245996308   1.0000000
N2   N   0.277779448848913   0.388902205995763   0.126347042302640   1.0000000
N2   N   0.277763783771232   0.555569549562088   0.124897970547813   1.0000000
N2   N   0.611122757146832   0.388902205995763   0.126347042302640   1.0000000
N2   N   0.777779641324773   0.888881828179025   0.124590096481226   1.0000000
N2   N   0.944447201738871   0.388894403477768   0.124605245996308   1.0000000
N2   N   0.111104659995717   0.555562330697367   0.625165774879203   1.0000000
N2   N   0.277763783771232   0.055527567542466   0.625102029452172   1.0000000
N2   N   0.777805765790873   0.555569549562088   0.625102029452172   1.0000000
N2   N   0.611102186854231   0.055553692008549   0.625409903518797   1.0000000
N2   N   0.944451505154304   0.055553692008549   0.625409903518797   1.0000000
N2   N   0.053964826353383   0.110100188781418   0.375000000000000   1.0000000
N2   N   0.556170025009363   0.612340050018743   0.375000000000000   1.0000000
N2   N   0.387117416706764   0.101278767489222   0.375000000000000   1.0000000
N2   N   0.892320786606630   0.612827059969966   0.375000000000000   1.0000000
N2   N   0.722518193252420   0.110815140080925   0.375000000000000   1.0000000
N2   N   0.055554905711291   0.777778427622039   0.875000000000000   1.0000000
N2   N   0.388891434460667   0.777778932540958   0.875000000000000   1.0000000
N2   N   0.222223575290519   0.277778454311954   0.875000000000000   1.0000000
N2   N   0.722222464004031   0.777782889657143   0.875000000000000   1.0000000
N2   N   0.555554879021397   0.277778454311954   0.875000000000000   1.0000000
N2   N   0.888887457189702   0.277774914379455   0.875000000000000   1.0000000
N2   N   0.221593371652879   0.777463352493115   0.375000000000000   1.0000000
N2   N   0.053964826353383   0.277197970905310   0.375000000000000   1.0000000
N2   N   0.371795105717396   0.243590211434819   0.375000000000000   1.0000000
N2   N   0.556135362428053   0.779368506979931   0.375000000000000   1.0000000
N2   N   0.891617666492029   0.780012264350379   0.375000000000000   1.0000000
N2   N   0.723233144551903   0.277197970905310   0.375000000000000   1.0000000
N2   N   0.055554400792378   0.944445835253043   0.875000000000000   1.0000000
N2   N   0.388891434460667   0.944445835253043   0.875000000000000   1.0000000
N2   N   0.222226060568597   0.444435807796440   0.875000000000000   1.0000000
N2   N   0.555527669072541   0.444430501202935   0.875000000000000   1.0000000
N2   N   0.722223907392906   0.944447814785859   0.875000000000000   1.0000000
N2   N   0.888887498080286   0.444441898872662   0.875000000000000   1.0000000
N2   N   0.053321068982994   0.444938735475041   0.375000000000000   1.0000000
N2   N   0.220506273363348   0.941012546726699   0.375000000000000   1.0000000
N2   N   0.556051886108597   0.944692609720954   0.375000000000000   1.0000000
N2   N   0.371795105717396   0.461538227615933   0.375000000000000   1.0000000
N2   N   0.888640723612374   0.944692609720954   0.375000000000000   1.0000000
N2   N   0.732054565844108   0.446215916626565   0.375000000000000   1.0000000
N2   N   0.222225364751660   0.611107968581661   0.875000000000000   1.0000000
N2   N   0.055550443676202   0.111110869329329   0.875000000000000   1.0000000
N2   N   0.555554879021399   0.611109758042764   0.875000000000000   1.0000000
N2   N   0.388897525536888   0.111123586105499   0.875000000000000   1.0000000
N2   N   0.888882603829981   0.611107968581661   0.875000000000000   1.0000000
N2   N   0.055869980840226   0.611739961680509   0.375000000000000   1.0000000
N2   N   0.722223907392906   0.111109425940411   0.875000000000000   1.0000000
N2   N   0.214161350782455   0.101278767489222   0.375000000000000   1.0000000
N2   N   0.387117416706764   0.619171982550883   0.375000000000000   1.0000000
N2   N   0.732054565844108   0.619171982550883   0.375000000000000   1.0000000
N2   N   0.556135362428053   0.110100188781418   0.375000000000000   1.0000000
N2   N   0.388897525536888   0.611107272764733   0.875000000000000   1.0000000
N2   N   0.888296946828504   0.110815140080925   0.375000000000000   1.0000000
N2   N   0.222223521910754   0.777778427622039   0.875000000000000   1.0000000
N2   N   0.055550443676203   0.277772907680221   0.875000000000000   1.0000000
N2   N   0.388902832130394   0.277805664260829   0.875000000000000   1.0000000
N2   N   0.555560425653113   0.777782889657143   0.875000000000000   1.0000000
N2   N   0.888887498080286   0.777778932540958   0.875000000000000   1.0000000
N2   N   0.722222464004031   0.277772907680221   0.875000000000000   1.0000000
N2   N   0.055869980840226   0.777463352493115   0.375000000000000   1.0000000
N2   N   0.388394597858288   0.780012264350386   0.375000000000000   1.0000000
N2   N   0.220993283314614   0.277163308323964   0.375000000000000   1.0000000
N2   N   0.723233144551903   0.779368506979931   0.375000000000000   1.0000000
N2   N   0.556170025009363   0.277163308323964   0.375000000000000   1.0000000
N2   N   0.888640723612374   0.277281447224774   0.375000000000000   1.0000000
N2   N   0.055554400792378   0.444441898872662   0.875000000000000   1.0000000
N2   N   0.222225364751660   0.944450729503347   0.875000000000000   1.0000000
N2   N   0.555558418953894   0.944445876143627   0.875000000000000   1.0000000
N2   N   0.388902832130394   0.444430501202935   0.875000000000000   1.0000000
N2   N   0.888887457189702   0.944445876143627   0.875000000000000   1.0000000
N2   N   0.053321068982994   0.941715666841300   0.375000000000000   1.0000000
N2   N   0.722209747227818   0.444435807796440   0.875000000000000   1.0000000
N2   N   0.388394597858288   0.941715666841300   0.375000000000000   1.0000000
N2   N   0.214161350782455   0.446215916626565   0.375000000000000   1.0000000
N2   N   0.220506273363348   0.612827059969966   0.375000000000000   1.0000000
N2   N   0.589743121898537   0.461538227615933   0.375000000000000   1.0000000
N2   N   0.722518193252420   0.945036386504825   0.375000000000000   1.0000000
N2   N   0.891617666492029   0.444938735475041   0.375000000000000   1.0000000
N2   N   0.055554905711291   0.611109811422558   0.875000000000000   1.0000000
N2   N   0.222226060568597   0.111123586105499   0.875000000000000   1.0000000
N2   N   0.722209747227818   0.611107272764733   0.875000000000000   1.0000000
N2   N   0.555560425653113   0.111110869329329   0.875000000000000   1.0000000
N2   N   0.888885518547469   0.111109425940411   0.875000000000000   1.0000000
B2   B   0.105440202656361   0.050501745944716   0.375000000000000   1.0000000
B2   B   0.624216510508175   0.567508800120391   0.375000000000000   1.0000000
B2   B   0.445061543288346   0.050501745944716   0.375000000000000   1.0000000
B2   B   0.946039774652517   0.555979149521294   0.375000000000000   1.0000000
B2   B   0.777777777777779   0.055555555555557   0.375000000000000   1.0000000
B2   B   0.111111111111114   0.722222222222221   0.875000000000000   1.0000000
B2   B   0.444458913502793   0.722259612407740   0.875000000000000   1.0000000
B2   B   0.277719733909321   0.222181415376502   0.875000000000000   1.0000000
B2   B   0.777800698904964   0.722259612407746   0.875000000000000   1.0000000
B2   B   0.611142287095134   0.222191046238210   0.875000000000000   1.0000000
B2   B   0.944419895024227   0.222210667538779   0.875000000000000   1.0000000
B2   B   0.277354183812050   0.723393958464542   0.375000000000000   1.0000000
B2   B   0.108827331320310   0.221080332326821   0.375000000000000   1.0000000
B2   B   0.443292289612219   0.209116822825169   0.375000000000000   1.0000000
B2   B   0.612253001006532   0.724506002012995   0.375000000000000   1.0000000
B2   B   0.946039774652517   0.723393958464542   0.375000000000000   1.0000000
B2   B   0.778051787234729   0.221341893080269   0.375000000000000   1.0000000
B2   B   0.111103182642942   0.888881093353081   0.875000000000000   1.0000000
B2   B   0.444456505126361   0.888894919229818   0.875000000000000   1.0000000
B2   B   0.277719733909324   0.388871651866142   0.875000000000000   1.0000000
B2   B   0.611151917956850   0.388871651866142   0.875000000000000   1.0000000
B2   B   0.777790772514552   0.888913438309102   0.875000000000000   1.0000000
B2   B   0.944438414103505   0.388876828206968   0.875000000000000   1.0000000
B2   B   0.105440202656361   0.388271790044982   0.375000000000000   1.0000000
B2   B   0.277354183812050   0.887293558680812   0.375000000000000   1.0000000
B2   B   0.611991440253098   0.890043227487752   0.375000000000000   1.0000000
B2   B   0.944094297167173   0.889239036166155   0.375000000000000   1.0000000
B2   B   0.782831587388627   0.388271790044982   0.375000000000000   1.0000000
B2   B   0.277764780915067   0.555568552418296   0.875000000000000   1.0000000
B2   B   0.111073720925601   0.055532634428405   0.875000000000000   1.0000000
B2   B   0.611151917956850   0.555613599424008   0.875000000000000   1.0000000
B2   B   0.444458913502784   0.055532634428405   0.875000000000000   1.0000000
B2   B   0.944452239980248   0.555555422623237   0.875000000000000   1.0000000
B2   B   0.109939374868799   0.555979149521294   0.375000000000000   1.0000000
B2   B   0.777777777777779   0.055555555555557   0.875000000000000   1.0000000
B2   B   0.275000717084352   0.050001434168715   0.375000000000000   1.0000000
B2   B   0.443292289612219   0.567508800120390   0.375000000000000   1.0000000
B2   B   0.783331899164631   0.558332616248951   0.375000000000000   1.0000000
B2   B   0.611991440253098   0.055281546098631   0.375000000000000   1.0000000
B2   B   0.444461681467186   0.555613599424012   0.875000000000000   1.0000000
B2   B   0.943290105845577   0.055281546098631   0.375000000000000   1.0000000
B2   B   0.277777910710156   0.722230150690371   0.875000000000000   1.0000000
B2   B   0.111048759143097   0.222191046238210   0.875000000000000   1.0000000
B2   B   0.444461681467185   0.222181415376502   0.875000000000000   1.0000000
B2   B   0.611142287095134   0.722284574190220   0.875000000000000   1.0000000
B2   B   0.944452239980248   0.722230150690371   0.875000000000000   1.0000000
B2   B   0.777790772514552   0.222210667538779   0.875000000000000   1.0000000
B2   B   0.111111111111114   0.722222222222221   0.375000000000000   1.0000000
B2   B   0.445061543288346   0.727893130676989   0.375000000000000   1.0000000
B2   B   0.265824533212950   0.209116822825169   0.375000000000000   1.0000000
B2   B   0.782831587388629   0.727893130676989   0.375000000000000   1.0000000
B2   B   0.612253001006532   0.221080332326821   0.375000000000000   1.0000000
B2   B   0.943290105845577   0.221341893080269   0.375000000000000   1.0000000
B2   B   0.111073720925601   0.388874419830536   0.875000000000000   1.0000000
B2   B   0.277777910710156   0.888881093353081   0.875000000000000   1.0000000
B2   B   0.611122665794567   0.888913438309102   0.875000000000000   1.0000000
B2   B   0.444444444444443   0.388888888888886   0.875000000000000   1.0000000
B2   B   0.944438414103515   0.888894919229818   0.875000000000000   1.0000000
B2   B   0.109939374868799   0.887293558680812   0.375000000000000   1.0000000
B2   B   0.777800698904964   0.388874419830536   0.875000000000000   1.0000000
B2   B   0.445144738999019   0.889239036166155   0.375000000000000   1.0000000
B2   B   0.265824533212950   0.390041043721109   0.375000000000000   1.0000000
B2   B   0.275000717084352   0.558332616248951   0.375000000000000   1.0000000
B2   B   0.624216510508175   0.390041043721109   0.375000000000000   1.0000000
B2   B   0.778051787234729   0.890043227487752   0.375000000000000   1.0000000
B2   B   0.944094297167173   0.388188594334309   0.375000000000000   1.0000000
B2   B   0.111103182642944   0.555555422623237   0.875000000000000   1.0000000
B2   B   0.277764780915059   0.055529561830116   0.875000000000000   1.0000000
B2   B   0.777803771503218   0.555568552418296   0.875000000000000   1.0000000
B2   B   0.611122665794567   0.055542560818809   0.875000000000000   1.0000000
B2   B   0.944419895024227   0.055542560818809   0.875000000000000   1.0000000
B2   B   0.055444351988165   0.111006780428953   0.124714709211187   1.0000000
B2   B   0.555686304246348   0.611372608492716   0.125754577322609   1.0000000
B2   B   0.388770515002357   0.110797924962410   0.125103168352296   1.0000000
B2   B   0.889055637199385   0.611194485266359   0.124951931175956   1.0000000
B2   B   0.722237086022318   0.111096247311030   0.124858065713567   1.0000000
B2   B   0.055576902334318   0.777756430999024   0.624895228483227   1.0000000
B2   B   0.388837214181476   0.777828998940623   0.625222933361854   1.0000000
B2   B   0.221960724840635   0.277647029086978   0.624245422677373   1.0000000
B2   B   0.722326552904385   0.777888981345140   0.625285290788810   1.0000000
B2   B   0.555686304246348   0.277647029086978   0.624245422677373   1.0000000
B2   B   0.888892500584611   0.277785001169265   0.625226987559361   1.0000000
B2   B   0.222179528664694   0.777756430999024   0.125104771516788   1.0000000
B2   B   0.055444351988166   0.277770904892539   0.124714709211187   1.0000000
B2   B   0.388557892168124   0.277115784336249   0.128527730429166   1.0000000
B2   B   0.555562428440797   0.777888981345140   0.124714709211187   1.0000000
B2   B   0.888991784759176   0.777828998940623   0.124777066638140   1.0000000
B2   B   0.722326552904385   0.277770904892539   0.124714709211187   1.0000000
B2   B   0.055504334392712   0.944341548574153   0.625222933361854   1.0000000
B2   B   0.388837214181482   0.944341548574153   0.625222933361854   1.0000000
B2   B   0.222027409960035   0.444562818330971   0.624896831647714   1.0000000
B2   B   0.556217548997081   0.444775441165205   0.621472269570870   1.0000000
B2   B   0.722237086022318   0.944474172044588   0.625141934286427   1.0000000
B2   B   0.888991784759176   0.444496119151853   0.625222933361854   1.0000000
B2   B   0.055504334392712   0.444496119151853   0.124777066638140   1.0000000
B2   B   0.222138848066980   0.944277696133944   0.124951931175956   1.0000000
B2   B   0.555548332164044   0.944440832748718   0.124773012440591   1.0000000
B2   B   0.388557892168124   0.444775441165205   0.128527730429165   1.0000000
B2   B   0.888892500584611   0.944440832748718   0.124773012440591   1.0000000
B2   B   0.722535408370929   0.444562818330971   0.125103168352296   1.0000000
B2   B   0.222138848066980   0.611194485266359   0.625048068824067   1.0000000
B2   B   0.055444351988166   0.111006780428953   0.625285290788800   1.0000000
B2   B   0.555686304246348   0.611372608492716   0.624245422677373   1.0000000
B2   B   0.388770515002357   0.110797924962411   0.624896831647714   1.0000000
B2   B   0.889055637199385   0.611194485266359   0.625048068824067   1.0000000
B2   B   0.055576902334318   0.611153804668665   0.125104771516788   1.0000000
B2   B   0.722237086022318   0.111096247311030   0.625141934286427   1.0000000
B2   B   0.222027409960035   0.110797924962410   0.125103168352296   1.0000000
B2   B   0.388770515002357   0.611305923373299   0.125103168352296   1.0000000
B2   B   0.722535408370929   0.611305923373299   0.125103168352296   1.0000000
B2   B   0.555562428440797   0.111006780428953   0.124714709211187   1.0000000
B2   B   0.388770515002357   0.611305923373299   0.624896831647714   1.0000000
B2   B   0.888859161288740   0.111096247311030   0.124858065713567   1.0000000
B2   B   0.222179528664694   0.777756430999024   0.624895228483227   1.0000000
B2   B   0.055444351988166   0.277770904892539   0.625285290788810   1.0000000
B2   B   0.388557892168124   0.277115784336249   0.621472269570870   1.0000000
B2   B   0.555562428440797   0.777888981345140   0.625285290788810   1.0000000
B2   B   0.888991784759176   0.777828998940623   0.625222933361854   1.0000000
B2   B   0.722326552904385   0.277770904892539   0.625285290788810   1.0000000
B2   B   0.055576902334318   0.777756430999024   0.125104771516788   1.0000000
B2   B   0.388837214181476   0.777828998940623   0.124777066638140   1.0000000
B2   B   0.221960724840635   0.277647029086978   0.125754577322609   1.0000000
B2   B   0.722326552904385   0.777888981345140   0.124714709211187   1.0000000
B2   B   0.555686304246348   0.277647029086978   0.125754577322609   1.0000000
B2   B   0.888892500584611   0.277785001169265   0.124773012440591   1.0000000
B2   B   0.055504334392712   0.444496119151846   0.625222933361854   1.0000000
B2   B   0.222138848066980   0.944277696133944   0.625048068824067   1.0000000
B2   B   0.555548332164044   0.944440832748718   0.625226987559361   1.0000000
B2   B   0.388557892168124   0.444775441165205   0.621472269570870   1.0000000
B2   B   0.888892500584611   0.944440832748718   0.625226987559361   1.0000000
B2   B   0.055504334392712   0.944341548574153   0.124777066638140   1.0000000
B2   B   0.722535408370929   0.444562818330971   0.624896831647714   1.0000000
B2   B   0.388837214181476   0.944341548574153   0.124777066638140   1.0000000
B2   B   0.222027409960035   0.444562818330971   0.125103168352296   1.0000000
B2   B   0.222138848066980   0.611194485266359   0.124951931175956   1.0000000
B2   B   0.556217548997081   0.444775441165205   0.128527730429166   1.0000000
B2   B   0.722237086022318   0.944474172044588   0.124858065713567   1.0000000
B2   B   0.888991784759176   0.444496119151853   0.124777066638140   1.0000000
B2   B   0.055576902334318   0.611153804668665   0.624895228483227   1.0000000
B2   B   0.222027409960035   0.110797924962410   0.624896831647714   1.0000000
B2   B   0.722535408370929   0.611305923373299   0.624896831647714   1.0000000
B2   B   0.555562428440797   0.111006780428953   0.625285290788810   1.0000000
B2   B   0.888859161288740   0.111096247311030   0.625141934286427   1.0000000


