data_1
_audit_creation_method   'vasp2cif'
_cell_length_a    14.93631414619966
_cell_length_b    14.936314146199727
_cell_length_c    13.341276283792837
_cell_angle_alpha    90.0
_cell_angle_beta    90.0
_cell_angle_gamma    119.99999999999984

_symmetry_space_group_name_H-M    'P 1'
loop_
_atom_site_label
_atom_site_type_symbol
_atom_site_fract_x
_atom_site_fract_y
_atom_site_fract_z
_atom_site_occupancy
S2   S   0.412426519911078   0.372879926622204   0.375000000000000   1.0000000
S2   S   0.557693824547360   0.445513578940344   0.375000000000000   1.0000000
N2   N   0.111202125552374   0.055597005183017   0.125242452249214   1.0000000
N2   N   0.611192121308245   0.555654298504277   0.124676648169362   1.0000000
N2   N   0.444510524993896   0.055567010237867   0.125215849875870   1.0000000
N2   N   0.944494068858392   0.555582286664291   0.125219834236053   1.0000000
N2   N   0.777864737865713   0.055599035599524   0.125028344723992   1.0000000
N2   N   0.111156532382037   0.722244932857683   0.624892901935248   1.0000000
N2   N   0.444510524993896   0.722276848089363   0.624784150124131   1.0000000
N2   N   0.277904573922973   0.222284533793951   0.624651618594516   1.0000000
N2   N   0.777842072529869   0.722272150078317   0.624735962118692   1.0000000
N2   N   0.611191808079813   0.222209901554060   0.624859300505134   1.0000000
N2   N   0.944537954077734   0.222267944390511   0.624920085396546   1.0000000
N2   N   0.277826936088658   0.722252760871278   0.125130262713329   1.0000000
N2   N   0.111225203448802   0.222279268391066   0.125336176940446   1.0000000
N2   N   0.444562017067106   0.222262385629516   0.125083088514266   1.0000000
N2   N   0.611191808079813   0.722315239859082   0.125140699494866   1.0000000
N2   N   0.944494068858392   0.722245115527435   0.125219834236053   1.0000000
N2   N   0.777861573642326   0.222242517932079   0.125056786483829   1.0000000
N2   N   0.111169216438367   0.888912180163154   0.624868430979242   1.0000000
N2   N   0.444498093388753   0.888915713361040   0.624909621918159   1.0000000
N2   N   0.277904573922973   0.388953373462350   0.624651618594516   1.0000000
N2   N   0.611192121308245   0.388871156137296   0.625323351830638   1.0000000
N2   N   0.777861573642326   0.888952389043575   0.624943213516170   1.0000000
N2   N   0.944518345087931   0.388923794214248   0.624887417724192   1.0000000
N2   N   0.111202125552374   0.388938453702686   0.125242452249214   1.0000000
N2   N   0.277826936088658   0.888907508550709   0.125130262713329   1.0000000
N2   N   0.611180923809192   0.888946998674610   0.125058846924548   1.0000000
N2   N   0.444634276374022   0.388983804853675   0.122902026168518   1.0000000
N2   N   0.944518345087931   0.888927884207011   0.125112582275808   1.0000000
N2   N   0.777842072529869   0.388903255784879   0.125264037881307   1.0000000
N2   N   0.277855859756884   0.555604334458485   0.624677681021225   1.0000000
N2   N   0.111202125552374   0.055597005183017   0.624757547750785   1.0000000
N2   N   0.611192121308245   0.555654298504277   0.625323351830638   1.0000000
N2   N   0.444510524993896   0.055567010237867   0.624784150124131   1.0000000
N2   N   0.944494068858392   0.555582286664291   0.624780165763947   1.0000000
N2   N   0.111169216438367   0.555590369608541   0.125131569020758   1.0000000
N2   N   0.777864737865713   0.055599035599524   0.624971655276008   1.0000000
N2   N   0.277855859756884   0.055584858631735   0.125322318978774   1.0000000
N2   N   0.444562017067106   0.555632964770926   0.125083088514266   1.0000000
N2   N   0.777813207062962   0.555573270198148   0.125402031370909   1.0000000
N2   N   0.611180923809192   0.055567258467913   0.125058846924548   1.0000000
N2   N   0.444562017067106   0.555632964770926   0.624916911485733   1.0000000
N2   N   0.944537954077734   0.055603343020558   0.125079914603454   1.0000000
N2   N   0.277826936088658   0.722252760871278   0.624869737286670   1.0000000
N2   N   0.111225203448802   0.222279268391066   0.624663823059555   1.0000000
N2   N   0.444562017067106   0.222262385629516   0.624916911485733   1.0000000
N2   N   0.611191808079813   0.722315239859082   0.624859300505134   1.0000000
N2   N   0.944494068858392   0.722245115527435   0.624780165763947   1.0000000
N2   N   0.777861573642326   0.222242517932079   0.624943213516170   1.0000000
N2   N   0.111156532382037   0.722244932857683   0.125107098064752   1.0000000
N2   N   0.444510524993896   0.722276848089363   0.125215849875870   1.0000000
N2   N   0.277904573922973   0.222284533793951   0.125348381405485   1.0000000
N2   N   0.777842072529869   0.722272150078317   0.125264037881307   1.0000000
N2   N   0.611191808079813   0.222209901554060   0.125140699494866   1.0000000
N2   N   0.944537954077734   0.222267944390511   0.125079914603454   1.0000000
N2   N   0.111202125552374   0.388938453702686   0.624757547750785   1.0000000
N2   N   0.277826936088658   0.888907508550709   0.624869737286670   1.0000000
N2   N   0.611180923809192   0.888946998674610   0.624941153075451   1.0000000
N2   N   0.444634276374022   0.388983804853675   0.627097973831481   1.0000000
N2   N   0.944518345087931   0.888927884207011   0.624887417724192   1.0000000
N2   N   0.111169216438367   0.888912180163154   0.125131569020758   1.0000000
N2   N   0.777842072529869   0.388903255784879   0.624735962118692   1.0000000
N2   N   0.444498093388753   0.888915713361040   0.125090378081842   1.0000000
N2   N   0.277904573922973   0.388953373462350   0.125348381405485   1.0000000
N2   N   0.277855859756884   0.555604334458485   0.125322318978774   1.0000000
N2   N   0.611192121308245   0.388871156137296   0.124676648169362   1.0000000
N2   N   0.777861573642326   0.888952389043575   0.125056786483829   1.0000000
N2   N   0.944518345087931   0.388923794214248   0.125112582275808   1.0000000
N2   N   0.111169216438367   0.555590369608541   0.624868430979242   1.0000000
N2   N   0.277855859756884   0.055584858631735   0.624677681021225   1.0000000
N2   N   0.777813207062962   0.555573270198148   0.624597968629092   1.0000000
N2   N   0.611180923809192   0.055567258467913   0.624941153075451   1.0000000
N2   N   0.944537954077734   0.055603343020558   0.624920085396546   1.0000000
N2   N   0.057346908084637   0.111940946265961   0.375000000000000   1.0000000
N2   N   0.556577638789160   0.621733557865303   0.375000000000000   1.0000000
N2   N   0.387215489030640   0.100957315384081   0.375000000000000   1.0000000
N2   N   0.888143324473912   0.610738328903628   0.375000000000000   1.0000000
N2   N   0.724343702210446   0.111031575132795   0.375000000000000   1.0000000
N2   N   0.055546899604805   0.777775923125690   0.875000000000000   1.0000000
N2   N   0.388887356754189   0.777775632487403   0.875000000000000   1.0000000
N2   N   0.222216341868368   0.277774837600851   0.875000000000000   1.0000000
N2   N   0.722218874693414   0.777775787172936   0.875000000000000   1.0000000
N2   N   0.555551177133061   0.277776753759396   0.875000000000000   1.0000000
N2   N   0.888886676989875   0.277776037684692   0.875000000000000   1.0000000
N2   N   0.220377222189344   0.776855277761340   0.375000000000000   1.0000000
N2   N   0.057346908084637   0.278739295152012   0.375000000000000   1.0000000
N2   N   0.380586284140272   0.250436877061616   0.375000000000000   1.0000000
N2   N   0.556461556606240   0.782997342072480   0.375000000000000   1.0000000
N2   N   0.890187426983557   0.779335350312277   0.375000000000000   1.0000000
N2   N   0.724498128186012   0.275954815486937   0.375000000000000   1.0000000
N2   N   0.055548846760746   0.944444099380829   0.875000000000000   1.0000000
N2   N   0.388887356754189   0.944445057600120   0.875000000000000   1.0000000
N2   N   0.222215383303344   0.444438303950491   0.875000000000000   1.0000000
N2   N   0.555558299056689   0.444445816195009   0.875000000000000   1.0000000
N2   N   0.722218443669707   0.944442574201851   0.875000000000000   1.0000000
N2   N   0.888884260243348   0.444439688833988   0.875000000000000   1.0000000
N2   N   0.054382823125701   0.445228874671298   0.375000000000000   1.0000000
N2   N   0.220127912454290   0.940406722587894   0.375000000000000   1.0000000
N2   N   0.556467236456033   0.944900284894681   0.375000000000000   1.0000000
N2   N   0.380586284140272   0.463482740411991   0.375000000000000   1.0000000
N2   N   0.890830980793222   0.946321442671759   0.375000000000000   1.0000000
N2   N   0.726400906224883   0.443141686166603   0.375000000000000   1.0000000
N2   N   0.222215417148002   0.611104394476772   0.875000000000000   1.0000000
N2   N   0.055549388757495   0.111108857035286   0.875000000000000   1.0000000
N2   N   0.555551177133061   0.611107756707002   0.875000000000000   1.0000000
N2   N   0.388884989230758   0.111111984200446   0.875000000000000   1.0000000
N2   N   0.888882628051861   0.611107980692601   0.875000000000000   1.0000000
N2   N   0.054051868721224   0.610980503030690   0.375000000000000   1.0000000
N2   N   0.722218443669707   0.111109202801192   0.875000000000000   1.0000000
N2   N   0.217807783479567   0.103164903006909   0.375000000000000   1.0000000
N2   N   0.387215489030640   0.619591506979902   0.375000000000000   1.0000000
N2   N   0.726400906224883   0.616592553391616   0.375000000000000   1.0000000
N2   N   0.556461556606240   0.106797547867096   0.375000000000000   1.0000000
N2   N   0.388884989230758   0.611106338363655   0.875000000000000   1.0000000
N2   N   0.891153861730213   0.112243597531778   0.375000000000000   1.0000000
N2   N   0.222216299035089   0.777774816184212   0.875000000000000   1.0000000
N2   N   0.055549388757495   0.277773865055544   0.875000000000000   1.0000000
N2   N   0.388881983749534   0.277771794143363   0.875000000000000   1.0000000
N2   N   0.555552442130091   0.777775573038012   0.875000000000000   1.0000000
N2   N   0.888884260243348   0.777777904742695   0.875000000000000   1.0000000
N2   N   0.722218874693414   0.277776420853814   0.875000000000000   1.0000000
N2   N   0.054051868721224   0.776404699023868   0.375000000000000   1.0000000
N2   N   0.387896788455090   0.780101767033212   0.375000000000000   1.0000000
N2   N   0.225643121076714   0.279488227205025   0.375000000000000   1.0000000
N2   N   0.724498128186012   0.781876646032411   0.375000000000000   1.0000000
N2   N   0.556577638789160   0.268177414257193   0.375000000000000   1.0000000
N2   N   0.890830980793222   0.277842871454798   0.375000000000000   1.0000000
N2   N   0.055548846760746   0.444438080713246   0.875000000000000   1.0000000
N2   N   0.222215417148002   0.944444356004567   0.875000000000000   1.0000000
N2   N   0.555551628184856   0.944442480759093   0.875000000000000   1.0000000
N2   N   0.388881983749534   0.444443522939507   0.875000000000000   1.0000000
N2   N   0.888886676989875   0.944443972638518   0.875000000000000   1.0000000
N2   N   0.054382823125701   0.942487281787730   0.375000000000000   1.0000000
N2   N   0.722218940151633   0.444443246122523   0.875000000000000   1.0000000
N2   N   0.387896788455090   0.941128354755215   0.375000000000000   1.0000000
N2   N   0.217807783479567   0.447976213805994   0.375000000000000   1.0000000
N2   N   0.220127912454290   0.613054523199730   0.375000000000000   1.0000000
N2   N   0.724343702210446   0.946645460410986   0.375000000000000   1.0000000
N2   N   0.890187426983557   0.444185410004616   0.375000000000000   1.0000000
N2   N   0.055546899604805   0.611104309812450   0.875000000000000   1.0000000
N2   N   0.222215383303344   0.111110412686189   0.875000000000000   1.0000000
N2   N   0.722218940151633   0.611109027362448   0.875000000000000   1.0000000
N2   N   0.555552442130091   0.111110202425414   0.875000000000000   1.0000000
N2   N   0.888885414342778   0.111109373838060   0.875000000000000   1.0000000
B2   B   0.108419184081623   0.052071746613959   0.375000000000000   1.0000000
B2   B   0.619896706746308   0.578271268364742   0.375000000000000   1.0000000
B2   B   0.444977979894582   0.049711786606729   0.375000000000000   1.0000000
B2   B   0.943979753946078   0.555166955140778   0.375000000000000   1.0000000
B2   B   0.780441868787979   0.056887601060658   0.375000000000000   1.0000000
B2   B   0.111114119505365   0.722223726419347   0.875000000000000   1.0000000
B2   B   0.444438408114358   0.722233212524869   0.875000000000000   1.0000000
B2   B   0.277747616145528   0.222204238693708   0.875000000000000   1.0000000
B2   B   0.777793855963496   0.722255354785433   0.875000000000000   1.0000000
B2   B   0.611111980381487   0.222196701611021   0.875000000000000   1.0000000
B2   B   0.944437107708987   0.222211238077761   0.875000000000000   1.0000000
B2   B   0.276740364020763   0.723428034155541   0.375000000000000   1.0000000
B2   B   0.112955041480078   0.223144187406703   0.375000000000000   1.0000000
B2   B   0.444705282938005   0.208645935676737   0.375000000000000   1.0000000
B2   B   0.613926510841814   0.731534814165948   0.375000000000000   1.0000000
B2   B   0.943979753946078   0.722146132138634   0.375000000000000   1.0000000
B2   B   0.780449993666512   0.221310560352186   0.375000000000000   1.0000000
B2   B   0.111106960576355   0.888892571425595   0.875000000000000   1.0000000
B2   B   0.444444168031999   0.888888750682664   0.875000000000000   1.0000000
B2   B   0.277747616145528   0.388876710785148   0.875000000000000   1.0000000
B2   B   0.611107315969369   0.388873933395080   0.875000000000000   1.0000000
B2   B   0.777786845124763   0.888915444619985   0.875000000000000   1.0000000
B2   B   0.944449648263710   0.388873621899362   0.875000000000000   1.0000000
B2   B   0.108419184081623   0.389680770800992   0.375000000000000   1.0000000
B2   B   0.276740364020763   0.886645663198550   0.375000000000000   1.0000000
B2   B   0.613460861928110   0.892480469452828   0.375000000000000   1.0000000
B2   B   0.944843246632082   0.889660950674225   0.375000000000000   1.0000000
B2   B   0.781357476583204   0.386892488981235   0.375000000000000   1.0000000
B2   B   0.277759154949042   0.555552030357878   0.875000000000000   1.0000000
B2   B   0.111091833461982   0.055550513989659   0.875000000000000   1.0000000
B2   B   0.611107315969369   0.555566715907616   0.875000000000000   1.0000000
B2   B   0.444438408114358   0.055538528922824   0.875000000000000   1.0000000
B2   B   0.944458754196292   0.555552686657246   0.875000000000000   1.0000000
B2   B   0.109541698298235   0.556123597199509   0.375000000000000   1.0000000
B2   B   0.777780105470015   0.055556719401675   0.875000000000000   1.0000000
B2   B   0.275803845006369   0.049560933826362   0.375000000000000   1.0000000
B2   B   0.444705282938005   0.569392680594604   0.375000000000000   1.0000000
B2   B   0.778730653319285   0.556031993326311   0.375000000000000   1.0000000
B2   B   0.613460861928110   0.054313725808610   0.375000000000000   1.0000000
B2   B   0.444420702675140   0.555557043685513   0.875000000000000   1.0000000
B2   B   0.946499182467363   0.057108697566279   0.375000000000000   1.0000000
B2   B   0.277773378274463   0.722222609349217   0.875000000000000   1.0000000
B2   B   0.111086125145327   0.222209729239328   0.875000000000000   1.0000000
B2   B   0.444420702675140   0.222196992322963   0.875000000000000   1.0000000
B2   B   0.611111980381487   0.722248612103794   0.875000000000000   1.0000000
B2   B   0.944458754196292   0.722239400872384   0.875000000000000   1.0000000
B2   B   0.777786845124763   0.222204733838107   0.875000000000000   1.0000000
B2   B   0.109762080080546   0.721547706706938   0.375000000000000   1.0000000
B2   B   0.444977979894582   0.728599526621189   0.375000000000000   1.0000000
B2   B   0.271612033176717   0.211051617862534   0.375000000000000   1.0000000
B2   B   0.781357476583204   0.727798320935298   0.375000000000000   1.0000000
B2   B   0.613926510841814   0.215725030009195   0.375000000000000   1.0000000
B2   B   0.946499182467363   0.222723818234419   0.375000000000000   1.0000000
B2   B   0.111091833461982   0.388874652805652   0.875000000000000   1.0000000
B2   B   0.277773378274463   0.888884102258574   0.875000000000000   1.0000000
B2   B   0.611114359676522   0.888903311460407   0.875000000000000   1.0000000
B2   B   0.444414051896051   0.388873692614690   0.875000000000000   1.0000000
B2   B   0.944449648263710   0.888909359697677   0.875000000000000   1.0000000
B2   B   0.109541698298235   0.886751434432055   0.375000000000000   1.0000000
B2   B   0.777793855963496   0.388871834511391   0.875000000000000   1.0000000
B2   B   0.445186837481024   0.889260085407176   0.375000000000000   1.0000000
B2   B   0.271612033176717   0.393893748647511   0.375000000000000   1.0000000
B2   B   0.275803845006369   0.559576244513343   0.375000000000000   1.0000000
B2   B   0.619896706746308   0.374958771714896   0.375000000000000   1.0000000
B2   B   0.780449993666512   0.892472766647655   0.375000000000000   1.0000000
B2   B   0.944843246632082   0.388515629291186   0.375000000000000   1.0000000
B2   B   0.111106960576355   0.555547722484088   0.875000000000000   1.0000000
B2   B   0.277759154949042   0.055540457924500   0.875000000000000   1.0000000
B2   B   0.777796909438041   0.555565121385689   0.875000000000000   1.0000000
B2   B   0.611114359676522   0.055544381549443   0.875000000000000   1.0000000
B2   B   0.944437107708987   0.055559202964562   0.875000000000000   1.0000000
B2   B   0.055619543184122   0.111139784071475   0.124964237075572   1.0000000
B2   B   0.555607365722525   0.611285474650243   0.124306961843438   1.0000000
B2   B   0.388920926777929   0.111036811077655   0.124951305702803   1.0000000
B2   B   0.889063080739924   0.611198207036634   0.124923537558904   1.0000000
B2   B   0.722296569036190   0.111100971308037   0.124824915563596   1.0000000
B2   B   0.055667524603659   0.777829271862995   0.625111301126258   1.0000000
B2   B   0.388918176275418   0.777836576847120   0.625086328991760   1.0000000
B2   B   0.222288075248766   0.277810704291051   0.625004282072334   1.0000000
B2   B   0.722332479276673   0.777948545402521   0.625228648438850   1.0000000
B2   B   0.555607365722525   0.277655224405618   0.625693038156562   1.0000000
B2   B   0.888988639869766   0.277790931457963   0.625154524725211   1.0000000
B2   B   0.222277857450408   0.777805595391873   0.124886380470386   1.0000000
B2   B   0.055619543184122   0.277813092445983   0.124964237075572   1.0000000
B2   B   0.388961983903015   0.277799231764435   0.124057215560688   1.0000000
B2   B   0.555601032742654   0.777917741618992   0.124846248221360   1.0000000
B2   B   0.889041487213782   0.777894691202528   0.124883765521896   1.0000000
B2   B   0.722332479276673   0.277717267207488   0.124771351561151   1.0000000
B2   B   0.055642744217001   0.944479765153982   0.625094545071895   1.0000000
B2   B   0.388918176275418   0.944414932761635   0.625086328991760   1.0000000
B2   B   0.222276701687454   0.444514005475035   0.624983009924444   1.0000000
B2   B   0.555602297844194   0.444467815588761   0.626808381173408   1.0000000
B2   B   0.722296569036190   0.944528931061488   0.625175084436404   1.0000000
B2   B   0.889041487213782   0.444480129344590   0.625116234478103   1.0000000
B2   B   0.055642744217001   0.444496312396347   0.124905454928106   1.0000000
B2   B   0.222273182806227   0.944427087087968   0.124946817236754   1.0000000
B2   B   0.555598152903952   0.944465743118640   0.124854371324846   1.0000000
B2   B   0.388961983903015   0.444496085471916   0.124057215560688   1.0000000
B2   B   0.888988639869766   0.944531041745137   0.124845475274789   1.0000000
B2   B   0.722379783108196   0.444455262166659   0.124512470794885   1.0000000
B2   B   0.222273182806227   0.611179429051597   0.625053182763247   1.0000000
B2   B   0.055619543184122   0.111139784071475   0.625035762924428   1.0000000
B2   B   0.555607365722525   0.611285474650243   0.625693038156562   1.0000000
B2   B   0.388920926777929   0.111036811077655   0.625048694297197   1.0000000
B2   B   0.889063080739924   0.611198207036634   0.625076462441095   1.0000000
B2   B   0.055667524603659   0.611171586073999   0.124888698873742   1.0000000
B2   B   0.722296569036190   0.111100971308037   0.625175084436404   1.0000000
B2   B   0.222276701687454   0.111096029545755   0.125016990075555   1.0000000
B2   B   0.388920926777929   0.611217449033617   0.124951305702803   1.0000000
B2   B   0.722379783108196   0.611257854274873   0.124512470794885   1.0000000
B2   B   0.555601032742654   0.111016624456997   0.124846248221360   1.0000000
B2   B   0.388920926777929   0.611217449033617   0.625048694297197   1.0000000
B2   B   0.888968801919525   0.111151067626434   0.124858612516150   1.0000000
B2   B   0.222277857450408   0.777805595391873   0.625113619529614   1.0000000
B2   B   0.055619543184122   0.277813092445983   0.625035762924428   1.0000000
B2   B   0.388961983903015   0.277799231764435   0.625942784439312   1.0000000
B2   B   0.555601032742654   0.777917741618992   0.625153751778641   1.0000000
B2   B   0.889041487213782   0.777894691202528   0.625116234478103   1.0000000
B2   B   0.722332479276673   0.277717267207488   0.625228648438850   1.0000000
B2   B   0.055667524603659   0.777829271862995   0.124888698873742   1.0000000
B2   B   0.388918176275418   0.777836576847120   0.124913671008240   1.0000000
B2   B   0.222288075248766   0.277810704291051   0.124995717927665   1.0000000
B2   B   0.722332479276673   0.777948545402521   0.124771351561151   1.0000000
B2   B   0.555607365722525   0.277655224405618   0.124306961843438   1.0000000
B2   B   0.888988639869766   0.277790931457963   0.124845475274789   1.0000000
B2   B   0.055642744217001   0.444496312396347   0.625094545071895   1.0000000
B2   B   0.222273182806227   0.944427087087968   0.625053182763247   1.0000000
B2   B   0.555598152903952   0.944465743118640   0.625145628675154   1.0000000
B2   B   0.388961983903015   0.444496085471916   0.625942784439312   1.0000000
B2   B   0.888988639869766   0.944531041745137   0.625154524725211   1.0000000
B2   B   0.055642744217001   0.944479765153982   0.124905454928106   1.0000000
B2   B   0.722379783108196   0.444455262166659   0.625487529205116   1.0000000
B2   B   0.388918176275418   0.944414932761635   0.124913671008240   1.0000000
B2   B   0.222276701687454   0.444514005475035   0.125016990075555   1.0000000
B2   B   0.222273182806227   0.611179429051597   0.124946817236754   1.0000000
B2   B   0.555602297844194   0.444467815588761   0.123191618826592   1.0000000
B2   B   0.722296569036190   0.944528931061488   0.124824915563596   1.0000000
B2   B   0.889041487213782   0.444480129344590   0.124883765521896   1.0000000
B2   B   0.055667524603659   0.611171586073999   0.625111301126258   1.0000000
B2   B   0.222276701687454   0.111096029545755   0.624983009924444   1.0000000
B2   B   0.722379783108196   0.611257854274873   0.625487529205116   1.0000000
B2   B   0.555601032742654   0.111016624456997   0.625153751778641   1.0000000
B2   B   0.888968801919525   0.111151067626434   0.625141387483850   1.0000000


