data_1
_audit_creation_method   'vasp2cif'
_cell_length_a    17.52789999999977
_cell_length_b    17.52789999999977
_cell_length_c    15.0
_cell_angle_alpha    90.0
_cell_angle_beta    90.0
_cell_angle_gamma    119.99999999999916

_symmetry_space_group_name_H-M    'P 1'
loop_
_atom_site_label
_atom_site_type_symbol
_atom_site_fract_x
_atom_site_fract_y
_atom_site_fract_z
_atom_site_occupancy
B2   B   0.904782420838230   0.952591631508082   0.110905953988656   1.0000000
B2   B   0.905705061895692   0.096001079417564   0.111004675778210   1.0000000
B2   B   0.905687811426716   0.238810504647664   0.111128612427111   1.0000000
B2   B   0.905485297896912   0.381570531474589   0.111052407812026   1.0000000
B2   B   0.904729351868245   0.524153060564509   0.110969450649006   1.0000000
B2   B   0.902299666808523   0.666300963116831   0.110983900191529   1.0000000
B2   B   0.902792325749492   0.808532608944198   0.110958783234883   1.0000000
B2   B   0.046989122634650   0.951860374761588   0.110894252716779   1.0000000
B2   B   0.048086234545232   0.095445507361182   0.110903448181988   1.0000000
B2   B   0.048448148410222   0.238637983604340   0.110995662236483   1.0000000
B2   B   0.048344591902877   0.381622976173183   0.111083565891691   1.0000000
B2   B   0.047825505896758   0.524369537891241   0.111055678353515   1.0000000
B2   B   0.047105220566528   0.666607675894741   0.110990446514745   1.0000000
B2   B   0.046573131626769   0.808951483011590   0.110919968856362   1.0000000
B2   B   0.189974164781530   0.951705931821501   0.110955496992600   1.0000000
B2   B   0.190601465462757   0.095014766351343   0.110951671588635   1.0000000
B2   B   0.191245721569878   0.238505326756907   0.110864770691888   1.0000000
B2   B   0.191062580017810   0.381469538358583   0.110891907872882   1.0000000
B2   B   0.190543805008692   0.524571024002557   0.111028653430763   1.0000000
B2   B   0.191640506991253   0.666801332100785   0.111105668552065   1.0000000
B2   B   0.190207184532415   0.809082314128135   0.110977681279141   1.0000000
B2   B   0.333170631340916   0.951650768180644   0.111015216503453   1.0000000
B2   B   0.333096621109683   0.094228891810241   0.111026035726725   1.0000000
B2   B   0.334108353629752   0.237948257649197   0.111043831174967   1.0000000
B2   B   0.334660868530748   0.381333364416844   0.111295778572961   1.0000000
B2   B   0.331751649086806   0.525256065710057   0.111210750112392   1.0000000
B2   B   0.337161477351813   0.667188396275382   0.111140280950474   1.0000000
B2   B   0.333784412827790   0.809262752739308   0.111097352448845   1.0000000
B2   B   0.476500790837922   0.952098729137871   0.110973167774950   1.0000000
B2   B   0.476265175982704   0.093867645181113   0.110994397572718   1.0000000
B2   B   0.476248318970566   0.235061226684080   0.110962383248924   1.0000000
B2   B   0.478006928183324   0.376429755693133   0.110974245771608   1.0000000
B2   B   0.486775030941872   0.668650780834773   0.111327857738303   1.0000000
B2   B   0.477110057912513   0.810009290634832   0.111095876717079   1.0000000
B2   B   0.619755288387778   0.953673765572072   0.110934052677993   1.0000000
B2   B   0.619595061330099   0.095440462185447   0.110927269409790   1.0000000
B2   B   0.619638952577633   0.237484565805798   0.110935432692141   1.0000000
B2   B   0.619890142514095   0.379798792192142   0.110951194990779   1.0000000
B2   B   0.617441647174276   0.521115698141326   0.110967333258611   1.0000000
B2   B   0.609412240457752   0.669643786535920   0.111178920759099   1.0000000
B2   B   0.620423007495668   0.812790663039891   0.111050466974486   1.0000000
B2   B   0.762965534491528   0.953755187044047   0.110921628919820   1.0000000
B2   B   0.762820057872068   0.096098222468510   0.111008369064543   1.0000000
B2   B   0.762729838051120   0.238528196981217   0.111027757192412   1.0000000
B2   B   0.762638203804100   0.381124653158080   0.110962356774945   1.0000000
B2   B   0.761746851983857   0.523774030743355   0.111014719363283   1.0000000
B2   B   0.755375342528070   0.665117647910367   0.111028048353267   1.0000000
B2   B   0.761174065161564   0.809955268363831   0.110979639329864   1.0000000
N2   N   0.951413928725094   0.904066787020321   0.110866322874169   1.0000000
N2   N   0.952828954667164   0.047905961087575   0.110894457544717   1.0000000
N2   N   0.953262432661878   0.191137483923468   0.111048612093105   1.0000000
N2   N   0.953142746371935   0.334005772291684   0.111089832733095   1.0000000
N2   N   0.952638288049308   0.476804226159077   0.110975416133123   1.0000000
N2   N   0.951263531129990   0.619293963494732   0.110935696676730   1.0000000
N2   N   0.950826466402228   0.761406530398252   0.110921089961355   1.0000000
N2   N   0.094540378101994   0.904172508542471   0.110877820825862   1.0000000
N2   N   0.095198846890281   0.047326873656115   0.110866960566926   1.0000000
N2   N   0.095940519604941   0.190810318480141   0.110867438307006   1.0000000
N2   N   0.095835908733749   0.333811393490621   0.110967684336103   1.0000000
N2   N   0.095450721779941   0.476912922489536   0.111058146760456   1.0000000
N2   N   0.095747373408000   0.619517743110530   0.111024934343614   1.0000000
N2   N   0.094706465087957   0.761704774579938   0.110905562618368   1.0000000
N2   N   0.237815388332719   0.904219926098966   0.110938214774624   1.0000000
N2   N   0.237845166681497   0.046959939490186   0.110962638340223   1.0000000
N2   N   0.238730878089287   0.190524621287193   0.110917523374590   1.0000000
N2   N   0.238922198250430   0.333836330204562   0.110834275493848   1.0000000
N2   N   0.237170219894554   0.476740873087196   0.110850377418196   1.0000000
N2   N   0.240533333009696   0.619814947692452   0.111115759984852   1.0000000
N2   N   0.238491093717460   0.761877779290133   0.111042887951379   1.0000000
N2   N   0.381191662257309   0.904380407473815   0.110992003995173   1.0000000
N2   N   0.380916694854850   0.046761823491502   0.110995661165677   1.0000000
N2   N   0.381063978747332   0.189403414420920   0.110968066294291   1.0000000
N2   N   0.382962807108221   0.333697312619700   0.111134595677378   1.0000000
N2   N   0.374814669159836   0.475226813849729   0.111915338546067   1.0000000
N2   N   0.387531899269309   0.620612295676253   0.111147496426027   1.0000000
N2   N   0.382217004405784   0.762163466634648   0.111121604325076   1.0000000
N2   N   0.524570174303553   0.905182268708409   0.110936535139174   1.0000000
N2   N   0.524280536348038   0.047080074964374   0.110913361634382   1.0000000
N2   N   0.524308152499391   0.188682425557863   0.110919847287773   1.0000000
N2   N   0.524699295387221   0.329398631976957   0.110936022097041   1.0000000
N2   N   0.525658699456794   0.763400549964747   0.111150425590521   1.0000000
N2   N   0.667926651615138   0.906949021352276   0.110901646532968   1.0000000
N2   N   0.667553553477406   0.048503852033940   0.110891098269499   1.0000000
N2   N   0.667474488474859   0.190513704255118   0.110925614305971   1.0000000
N2   N   0.667531430493755   0.332788919236473   0.110899462230029   1.0000000
N2   N   0.667172912721563   0.475623804821348   0.110983828430300   1.0000000
N2   N   0.656473431329918   0.617167801076723   0.111076068702416   1.0000000
N2   N   0.665984595549551   0.763458105263683   0.111038374642641   1.0000000
N2   N   0.809568123796453   0.905238874378559   0.110882644625095   1.0000000
N2   N   0.810564317541385   0.048669775657859   0.110940672050216   1.0000000
N2   N   0.810466583769513   0.191170463359615   0.111054915794149   1.0000000
N2   N   0.810306621808810   0.333746248210964   0.110980869308420   1.0000000
N2   N   0.809642177906509   0.476451134084017   0.110940676838567   1.0000000
N2   N   0.805956833332044   0.618895083352933   0.110975511094758   1.0000000
N2   N   0.806653576318081   0.760657841578265   0.110963845351259   1.0000000
O2   O   0.463166521466276   0.533134874438143   0.113129101711519   1.0000000
O2   O   0.528935263162085   0.465331894889207   0.110600191183866   1.0000000


