data_1
_audit_creation_method   'vasp2cif'
_cell_length_a    14.93631414619966
_cell_length_b    14.936314146199727
_cell_length_c    13.341276283792837
_cell_angle_alpha    90.0
_cell_angle_beta    90.0
_cell_angle_gamma    119.99999999999984

_symmetry_space_group_name_H-M    'P 1'
loop_
_atom_site_label
_atom_site_type_symbol
_atom_site_fract_x
_atom_site_fract_y
_atom_site_fract_z
_atom_site_occupancy
S2   S   0.404205105542032   0.368769219437681   0.375000000000000   1.0000000
S2   S   0.551157433640402   0.442245383486865   0.375000000000000   1.0000000
N2   N   0.111312543176246   0.055661033003330   0.125209607938789   1.0000000
N2   N   0.611302669952048   0.555730396631559   0.123920237972706   1.0000000
N2   N   0.444633138965172   0.055627358950856   0.125055288953914   1.0000000
N2   N   0.944577840285067   0.555619099765242   0.125143925957825   1.0000000
N2   N   0.777977013634298   0.055655173483817   0.124914777671504   1.0000000
N2   N   0.111251879138019   0.722292606235675   0.624978057334115   1.0000000
N2   N   0.444633138965172   0.722339113347652   0.624944711046088   1.0000000
N2   N   0.278018177072692   0.222337652360955   0.624951773778987   1.0000000
N2   N   0.777934258372386   0.722332808273602   0.624911027329546   1.0000000
N2   N   0.611301150325154   0.222244178720267   0.625155440330613   1.0000000
N2   N   0.944643879819074   0.222315062834885   0.625003908236649   1.0000000
N2   N   0.277938619545987   0.722305439804870   0.125046959945323   1.0000000
N2   N   0.111337066755308   0.222335200044319   0.125309551724632   1.0000000
N2   N   0.444679589863822   0.222324993565528   0.124525269661331   1.0000000
N2   N   0.611301150325154   0.722390304938217   0.124844559669388   1.0000000
N2   N   0.944577840285067   0.722292073853163   0.125143925957825   1.0000000
N2   N   0.777967632376460   0.222283334235912   0.124964795739894   1.0000000
N2   N   0.111271633607122   0.888972131597749   0.624931296636819   1.0000000
N2   N   0.444617787570791   0.888975560452057   0.625001496465837   1.0000000
N2   N   0.278018177072692   0.389013858045064   0.624951773778987   1.0000000
N2   N   0.611302669952048   0.388905606653818   0.626079762027294   1.0000000
N2   N   0.777967632376460   0.889017631473875   0.625035204260107   1.0000000
N2   N   0.944615418987976   0.388962251341558   0.624943779377147   1.0000000
N2   N   0.111312543176246   0.388984843506245   0.125209607938789   1.0000000
N2   N   0.277938619545987   0.888966513074448   0.125046959945323   1.0000000
N2   N   0.611300249585536   0.889015469560323   0.124948692968408   1.0000000
N2   N   0.444810043983163   0.389071688658246   0.121469106802969   1.0000000
N2   N   0.944615418987976   0.888986500979748   0.125056220622854   1.0000000
N2   N   0.777934258372386   0.388934783432113   0.125088972670453   1.0000000
N2   N   0.277974400604988   0.555658590683564   0.624782522120693   1.0000000
N2   N   0.111312543176246   0.055661033003330   0.624790392061210   1.0000000
N2   N   0.611302669952048   0.555730396631559   0.626079762027294   1.0000000
N2   N   0.444633138965172   0.055627358950856   0.624944711046088   1.0000000
N2   N   0.944577840285067   0.555619099765242   0.624856074042176   1.0000000
N2   N   0.111271633607122   0.555632835342703   0.125068703363180   1.0000000
N2   N   0.777977013634298   0.055655173483817   0.625085222328497   1.0000000
N2   N   0.277974400604988   0.055649143254760   0.125217477879307   1.0000000
N2   N   0.444679589863822   0.555687929631632   0.124525269661331   1.0000000
N2   N   0.777894209478868   0.555613771406101   0.125085899203139   1.0000000
N2   N   0.611300249585536   0.055618113358541   0.124948692968408   1.0000000
N2   N   0.444679589863822   0.555687929631632   0.625474730338669   1.0000000
N2   N   0.944643879819074   0.055662150317523   0.124996091763353   1.0000000
N2   N   0.277938619545987   0.722305439804870   0.624953040054679   1.0000000
N2   N   0.111337066755308   0.222335200044319   0.624690448275369   1.0000000
N2   N   0.444679589863822   0.222324993565528   0.625474730338669   1.0000000
N2   N   0.611301150325154   0.722390304938217   0.625155440330613   1.0000000
N2   N   0.944577840285067   0.722292073853163   0.624856074042176   1.0000000
N2   N   0.777967632376460   0.222283334235912   0.625035204260107   1.0000000
N2   N   0.111251879138019   0.722292606235675   0.125021942665883   1.0000000
N2   N   0.444633138965172   0.722339113347652   0.125055288953914   1.0000000
N2   N   0.278018177072692   0.222337652360955   0.125048226221013   1.0000000
N2   N   0.777934258372386   0.722332808273602   0.125088972670453   1.0000000
N2   N   0.611301150325154   0.222244178720267   0.124844559669388   1.0000000
N2   N   0.944643879819074   0.222315062834885   0.124996091763353   1.0000000
N2   N   0.111312543176246   0.388984843506245   0.624790392061210   1.0000000
N2   N   0.277938619545987   0.888966513074448   0.624953040054679   1.0000000
N2   N   0.611300249585536   0.889015469560323   0.625051307031591   1.0000000
N2   N   0.444810043983163   0.389071688658246   0.628530893197029   1.0000000
N2   N   0.944615418987976   0.888986500979748   0.624943779377147   1.0000000
N2   N   0.111271633607122   0.888972131597749   0.125068703363180   1.0000000
N2   N   0.777934258372386   0.388934783432113   0.624911027329546   1.0000000
N2   N   0.444617787570791   0.888975560452057   0.124998503534163   1.0000000
N2   N   0.278018177072692   0.389013858045064   0.125048226221013   1.0000000
N2   N   0.277974400604988   0.555658590683564   0.125217477879307   1.0000000
N2   N   0.611302669952048   0.388905606653818   0.123920237972706   1.0000000
N2   N   0.777967632376460   0.889017631473875   0.124964795739894   1.0000000
N2   N   0.944615418987976   0.388962251341558   0.125056220622854   1.0000000
N2   N   0.111271633607122   0.555632835342703   0.624931296636819   1.0000000
N2   N   0.277974400604988   0.055649143254760   0.624782522120693   1.0000000
N2   N   0.777894209478868   0.555613771406101   0.624914100796862   1.0000000
N2   N   0.611300249585536   0.055618113358541   0.625051307031591   1.0000000
N2   N   0.944643879819074   0.055662150317523   0.625003908236649   1.0000000
N2   N   0.057712516809349   0.111851242877512   0.375000000000000   1.0000000
N2   N   0.557167630885904   0.623187387448021   0.375000000000000   1.0000000
N2   N   0.387076817936672   0.097344347348633   0.375000000000000   1.0000000
N2   N   0.886863199539017   0.610098266436181   0.375000000000000   1.0000000
N2   N   0.725004117748585   0.111226557601110   0.375000000000000   1.0000000
N2   N   0.055523921557961   0.777762094392783   0.875000000000000   1.0000000
N2   N   0.388857166824228   0.777763096103347   0.875000000000000   1.0000000
N2   N   0.222194475105017   0.277763904219177   0.875000000000000   1.0000000
N2   N   0.722196152988121   0.777761403884469   0.875000000000000   1.0000000
N2   N   0.555526358868019   0.277762951189498   0.875000000000000   1.0000000
N2   N   0.888865483366021   0.277768617900887   0.875000000000000   1.0000000
N2   N   0.219582369086446   0.776457851209892   0.375000000000000   1.0000000
N2   N   0.057712516809349   0.279194607265173   0.375000000000000   1.0000000
N2   N   0.383285654736185   0.246957767580108   0.375000000000000   1.0000000
N2   N   0.556994134591325   0.783980584648260   0.375000000000000   1.0000000
N2   N   0.889441152552556   0.778772801953383   0.375000000000000   1.0000000
N2   N   0.724891584509157   0.275862296041694   0.375000000000000   1.0000000
N2   N   0.055526971917792   0.944428418629629   0.875000000000000   1.0000000
N2   N   0.388857166824228   0.944427404054219   0.875000000000000   1.0000000
N2   N   0.222190951413078   0.444432394316327   0.875000000000000   1.0000000
N2   N   0.555541425869648   0.444437379601488   0.875000000000000   1.0000000
N2   N   0.722194293858738   0.944429174920811   0.875000000000000   1.0000000
N2   N   0.888864787384405   0.444433298092079   0.875000000000000   1.0000000
N2   N   0.054132290937009   0.445439111301989   0.375000000000000   1.0000000
N2   N   0.219471786635333   0.939233162116435   0.375000000000000   1.0000000
N2   N   0.556928848759048   0.945131091046187   0.375000000000000   1.0000000
N2   N   0.383285654736185   0.469661220489413   0.375000000000000   1.0000000
N2   N   0.891165350949216   0.946439666688921   0.375000000000000   1.0000000
N2   N   0.724761814458399   0.442403132977831   0.375000000000000   1.0000000
N2   N   0.222188487813946   0.611096756615919   0.875000000000000   1.0000000
N2   N   0.055529831186066   0.111096801949791   0.875000000000000   1.0000000
N2   N   0.555526358868019   0.611096741011856   0.875000000000000   1.0000000
N2   N   0.388856079440513   0.111092326005640   0.875000000000000   1.0000000
N2   N   0.888865590216210   0.611099461774776   0.875000000000000   1.0000000
N2   N   0.053131809158498   0.610713297073698   0.375000000000000   1.0000000
N2   N   0.722194293858738   0.111098452271261   0.875000000000000   1.0000000
N2   N   0.218061457930634   0.102170987745142   0.375000000000000   1.0000000
N2   N   0.387076817936672   0.623065803921385   0.375000000000000   1.0000000
N2   N   0.724761814458399   0.615692014813902   0.375000000000000   1.0000000
N2   N   0.556994134591325   0.106346883276399   0.375000000000000   1.0000000
N2   N   0.388856079440513   0.611097086768214   0.875000000000000   1.0000000
N2   N   0.891815614113312   0.112574473723328   0.375000000000000   1.0000000
N2   N   0.222187287397191   0.777760310365263   0.875000000000000   1.0000000
N2   N   0.055529831186066   0.277766362569612   0.875000000000000   1.0000000
N2   N   0.388855398269622   0.277754253198398   0.875000000000000   1.0000000
N2   N   0.555524174547189   0.777762575348170   0.875000000000000   1.0000000
N2   N   0.888864787384405   0.777764822625662   0.875000000000000   1.0000000
N2   N   0.722196152988121   0.277768082436988   0.875000000000000   1.0000000
N2   N   0.053131809158498   0.775751845418133   0.375000000000000   1.0000000
N2   N   0.387622115826593   0.781031039264003   0.375000000000000   1.0000000
N2   N   0.225228091956003   0.279280712644670   0.375000000000000   1.0000000
N2   N   0.724891584509157   0.782362621800797   0.375000000000000   1.0000000
N2   N   0.557167630885904   0.267313576771219   0.375000000000000   1.0000000
N2   N   0.891165350949216   0.278059017593633   0.375000000000000   1.0000000
N2   N   0.055526971917792   0.444431886621492   0.875000000000000   1.0000000
N2   N   0.222188487813946   0.944425064531363   0.875000000000000   1.0000000
N2   N   0.555523957327687   0.944428645330509   0.875000000000000   1.0000000
N2   N   0.388855398269622   0.444434478404562   0.875000000000000   1.0000000
N2   N   0.888865483366021   0.944430198798473   0.875000000000000   1.0000000
N2   N   0.054132290937009   0.942026512968352   0.375000000000000   1.0000000
N2   N   0.722201824776834   0.444436450165890   0.875000000000000   1.0000000
N2   N   0.387622115826593   0.939924409895930   0.375000000000000   1.0000000
N2   N   0.218061457930634   0.449223803518827   0.375000000000000   1.0000000
N2   N   0.219471786635333   0.613571957852231   0.375000000000000   1.0000000
N2   N   0.725004117748585   0.947110893480810   0.375000000000000   1.0000000
N2   N   0.889441152552556   0.444001683932509   0.375000000000000   1.0000000
N2   N   0.055523921557961   0.611095160498514   0.875000000000000   1.0000000
N2   N   0.222190951413078   0.111091890430087   0.875000000000000   1.0000000
N2   N   0.722201824776834   0.611098707944280   0.875000000000000   1.0000000
N2   N   0.555524174547189   0.111094932532352   0.875000000000000   1.0000000
N2   N   0.888864824135588   0.111099078734465   0.875000000000000   1.0000000
B2   B   0.109058755493166   0.052066488645702   0.375000000000000   1.0000000
B2   B   0.617102474105068   0.575385498668718   0.375000000000000   1.0000000
B2   B   0.445257643680543   0.048146993677512   0.375000000000000   1.0000000
B2   B   0.942936829682267   0.554856924738653   0.375000000000000   1.0000000
B2   B   0.781197842012260   0.057265587672798   0.375000000000000   1.0000000
B2   B   0.111091404127565   0.722212368730449   0.875000000000000   1.0000000
B2   B   0.444399065041295   0.722185443479995   0.875000000000000   1.0000000
B2   B   0.277763737289882   0.222225976436497   0.875000000000000   1.0000000
B2   B   0.777748088847147   0.722211689755379   0.875000000000000   1.0000000
B2   B   0.611058832062573   0.222204213949006   0.875000000000000   1.0000000
B2   B   0.944443308295219   0.222215781164147   0.875000000000000   1.0000000
B2   B   0.276419292624431   0.723671355105160   0.375000000000000   1.0000000
B2   B   0.114034304283522   0.223683818808425   0.375000000000000   1.0000000
B2   B   0.444450474395119   0.205224538915006   0.375000000000000   1.0000000
B2   B   0.614242615240967   0.731861975055888   0.375000000000000   1.0000000
B2   B   0.942936829682267   0.721413238276950   0.375000000000000   1.0000000
B2   B   0.780862305318274   0.221557839307246   0.375000000000000   1.0000000
B2   B   0.111096888683789   0.888893532488471   0.875000000000000   1.0000000
B2   B   0.444407124935349   0.888870229134338   0.875000000000000   1.0000000
B2   B   0.277763737289882   0.388871094186713   0.875000000000000   1.0000000
B2   B   0.611046065010380   0.388864503880379   0.875000000000000   1.0000000
B2   B   0.777755544393435   0.888881442833869   0.875000000000000   1.0000000
B2   B   0.944436048194563   0.388873123963506   0.875000000000000   1.0000000
B2   B   0.109058755493166   0.390325600180793   0.375000000000000   1.0000000
B2   B   0.276419292624431   0.886081270852601   0.375000000000000   1.0000000
B2   B   0.614053271581299   0.892930150638354   0.375000000000000   1.0000000
B2   B   0.944635751288126   0.889230869174865   0.375000000000000   1.0000000
B2   B   0.780225514702856   0.386810618004504   0.375000000000000   1.0000000
B2   B   0.277750208009459   0.555524330933903   0.875000000000000   1.0000000
B2   B   0.111108401896839   0.055567217267731   0.875000000000000   1.0000000
B2   B   0.611046065010380   0.555514894463330   0.875000000000000   1.0000000
B2   B   0.444399065041295   0.055546954894637   0.875000000000000   1.0000000
B2   B   0.944428921216070   0.555541707253428   0.875000000000000   1.0000000
B2   B   0.109075314856010   0.556250596389700   0.375000000000000   1.0000000
B2   B   0.777759207509550   0.055546270421442   0.875000000000000   1.0000000
B2   B   0.276106568289087   0.048592096489085   0.375000000000000   1.0000000
B2   B   0.444450474395119   0.572559268813449   0.375000000000000   1.0000000
B2   B   0.776790691775908   0.555062012554620   0.375000000000000   1.0000000
B2   B   0.614053271581299   0.054456454276273   0.375000000000000   1.0000000
B2   B   0.444381447713369   0.555500196818812   0.875000000000000   1.0000000
B2   B   0.947255470307000   0.057349508870665   0.375000000000000   1.0000000
B2   B   0.277749206098234   0.722201380689749   0.875000000000000   1.0000000
B2   B   0.111120189911512   0.222226761622421   0.875000000000000   1.0000000
B2   B   0.444381447713369   0.222214584227895   0.875000000000000   1.0000000
B2   B   0.611058832062573   0.722187951446895   0.875000000000000   1.0000000
B2   B   0.944428921216070   0.722220547295978   0.875000000000000   1.0000000
B2   B   0.777755544393435   0.222207434892892   0.875000000000000   1.0000000
B2   B   0.108981830262483   0.721157581797905   0.375000000000000   1.0000000
B2   B   0.445257643680543   0.730443983336366   0.375000000000000   1.0000000
B2   B   0.274761547077719   0.210885281104993   0.375000000000000   1.0000000
B2   B   0.780225514702856   0.726748230031683   0.375000000000000   1.0000000
B2   B   0.614242615240967   0.215713973518408   0.375000000000000   1.0000000
B2   B   0.947255470307000   0.223239294769671   0.375000000000000   1.0000000
B2   B   0.111108401896839   0.388874517962437   0.875000000000000   1.0000000
B2   B   0.277749206098234   0.888881158741815   0.875000000000000   1.0000000
B2   B   0.611073566299295   0.888868068658149   0.875000000000000   1.0000000
B2   B   0.444379773174380   0.388856553253854   0.875000000000000   1.0000000
B2   B   0.944436048194563   0.888896257564385   0.875000000000000   1.0000000
B2   B   0.109075314856010   0.886158051799640   0.375000000000000   1.0000000
B2   B   0.777748088847147   0.388869732425097   0.875000000000000   1.0000000
B2   B   0.445462912217889   0.889398122775609   0.375000000000000   1.0000000
B2   B   0.274761547077719   0.397209599306056   0.375000000000000   1.0000000
B2   B   0.276106568289087   0.560847805133338   0.375000000000000   1.0000000
B2   B   0.617102474105067   0.375050308769680   0.375000000000000   1.0000000
B2   B   0.780862305318274   0.892637799344354   0.375000000000000   1.0000000
B2   B   0.944635751288126   0.388738215446593   0.375000000000000   1.0000000
B2   B   0.111096888683789   0.555536689528648   0.875000000000000   1.0000000
B2   B   0.277750208009459   0.055559210408893   0.875000000000000   1.0000000
B2   B   0.777745481242994   0.555539407288164   0.875000000000000   1.0000000
B2   B   0.611073566299295   0.055538830974474   0.875000000000000   1.0000000
B2   B   0.944443308295219   0.055560860464408   0.875000000000000   1.0000000
B2   B   0.055819644553203   0.111282066885918   0.125188005010265   1.0000000
B2   B   0.555618175243127   0.611215257921341   0.124225614379214   1.0000000
B2   B   0.389088307717232   0.111266608882683   0.125120016718723   1.0000000
B2   B   0.889052562177799   0.611192947755570   0.124998288935635   1.0000000
B2   B   0.722390138878441   0.111155641096990   0.124910327166862   1.0000000
B2   B   0.055755355476633   0.777901646677135   0.625005703676048   1.0000000
B2   B   0.389063239654584   0.777856613200365   0.624967739659728   1.0000000
B2   B   0.222565968396360   0.277949650864848   0.624549556672167   1.0000000
B2   B   0.722359820696214   0.777940149623121   0.625157504199518   1.0000000
B2   B   0.555618175243127   0.277736250655124   0.625774385620787   1.0000000
B2   B   0.889093520338485   0.277824966936002   0.625039284292304   1.0000000
B2   B   0.222414222575772   0.777873777954554   0.124984493802291   1.0000000
B2   B   0.055819644553203   0.277870911000620   0.125188005010265   1.0000000
B2   B   0.389138203352582   0.278032547002336   0.124375608474986   1.0000000
B2   B   0.555694241341751   0.777907926673702   0.124929249163900   1.0000000
B2   B   0.889074097294737   0.777925538200733   0.124995295933539   1.0000000
B2   B   0.722359820696214   0.277753004406428   0.124842495800480   1.0000000
B2   B   0.055787235810687   0.944617915119796   0.624932055516965   1.0000000
B2   B   0.389063239654584   0.944539959787553   0.624967739659728   1.0000000
B2   B   0.222515460555363   0.444509159086627   0.624723101866860   1.0000000
B2   B   0.555542252358978   0.444437792846153   0.627151155322856   1.0000000
B2   B   0.722390138878441   0.944567831114787   0.625089672833138   1.0000000
B2   B   0.889074097294737   0.444481892427341   0.625004704066460   1.0000000
B2   B   0.055787235810687   0.444502654024219   0.125067944483036   1.0000000
B2   B   0.222441199072055   0.944600967333126   0.125095875982575   1.0000000
B2   B   0.555712365639482   0.944522849486405   0.124955921835791   1.0000000
B2   B   0.389138203352582   0.444438989683582   0.124375608474986   1.0000000
B2   B   0.889093520338485   0.944601886735822   0.124960715707695   1.0000000
B2   B   0.722315403260711   0.444432792727607   0.124445636224963   1.0000000
B2   B   0.222441199072055   0.611173565072263   0.624904124017424   1.0000000
B2   B   0.055819644553203   0.111282066885918   0.624811994989733   1.0000000
B2   B   0.555618175243127   0.611215257921341   0.625774385620787   1.0000000
B2   B   0.389088307717232   0.111266608882683   0.624879983281275   1.0000000
B2   B   0.889052562177799   0.611192947755570   0.625001711064365   1.0000000
B2   B   0.055755355476633   0.611187042132832   0.124994296323951   1.0000000
B2   B   0.722390138878441   0.111155641096990   0.625089672833138   1.0000000
B2   B   0.222515460555363   0.111339634802071   0.125276898133139   1.0000000
B2   B   0.389088307717232   0.611155032167893   0.125120016718723   1.0000000
B2   B   0.722315403260711   0.611215943866437   0.124445636224963   1.0000000
B2   B   0.555694241341751   0.111119648001386   0.124929249163900   1.0000000
B2   B   0.389088307717232   0.611155032167893   0.624879983281275   1.0000000
B2   B   0.889104367078149   0.111218850205746   0.124951616036746   1.0000000
B2   B   0.222414222575772   0.777873777954554   0.625015506197708   1.0000000
B2   B   0.055819644553203   0.277870911000620   0.624811994989733   1.0000000
B2   B   0.389138203352582   0.278032547002336   0.625624391525015   1.0000000
B2   B   0.555694241341751   0.777907926673702   0.625070750836099   1.0000000
B2   B   0.889074097294737   0.777925538200733   0.625004704066460   1.0000000
B2   B   0.722359820696214   0.277753004406428   0.625157504199518   1.0000000
B2   B   0.055755355476633   0.777901646677135   0.124994296323951   1.0000000
B2   B   0.389063239654584   0.777856613200365   0.125032260340274   1.0000000
B2   B   0.222565968396360   0.277949650864848   0.125450443327834   1.0000000
B2   B   0.722359820696214   0.777940149623121   0.124842495800480   1.0000000
B2   B   0.555618175243127   0.277736250655124   0.124225614379214   1.0000000
B2   B   0.889093520338485   0.277824966936002   0.124960715707695   1.0000000
B2   B   0.055787235810687   0.444502654024219   0.624932055516965   1.0000000
B2   B   0.222441199072055   0.944600967333126   0.624904124017424   1.0000000
B2   B   0.555712365639482   0.944522849486405   0.625044078164210   1.0000000
B2   B   0.389138203352582   0.444438989683582   0.625624391525015   1.0000000
B2   B   0.889093520338485   0.944601886735822   0.625039284292304   1.0000000
B2   B   0.055787235810687   0.944617915119796   0.125067944483036   1.0000000
B2   B   0.722315403260711   0.444432792727607   0.625554363775037   1.0000000
B2   B   0.389063239654584   0.944539959787553   0.125032260340274   1.0000000
B2   B   0.222515460555363   0.444509159086627   0.125276898133139   1.0000000
B2   B   0.222441199072055   0.611173565072263   0.125095875982575   1.0000000
B2   B   0.555542252358978   0.444437792846153   0.122848844677144   1.0000000
B2   B   0.722390138878441   0.944567831114787   0.124910327166862   1.0000000
B2   B   0.889074097294737   0.444481892427341   0.124995295933539   1.0000000
B2   B   0.055755355476633   0.611187042132832   0.625005703676048   1.0000000
B2   B   0.222515460555363   0.111339634802071   0.624723101866860   1.0000000
B2   B   0.722315403260711   0.611215943866437   0.625554363775037   1.0000000
B2   B   0.555694241341751   0.111119648001386   0.625070750836099   1.0000000
B2   B   0.889104367078149   0.111218850205746   0.625048383963255   1.0000000


