data_1
_audit_creation_method   'vasp2cif'
_cell_length_a    14.93631414619966
_cell_length_b    14.936314146199727
_cell_length_c    13.341276283792837
_cell_angle_alpha    90.0
_cell_angle_beta    90.0
_cell_angle_gamma    119.99999999999984

_symmetry_space_group_name_H-M    'P 1'
loop_
_atom_site_label
_atom_site_type_symbol
_atom_site_fract_x
_atom_site_fract_y
_atom_site_fract_z
_atom_site_occupancy
Pb2   Pb   0.487789148350455   0.410561240841795   0.375000000000000   1.0000000
N2   N   0.111576228332926   0.055778327391492   0.124833721002614   1.0000000
N2   N   0.611576334398006   0.555840505587655   0.130283609071560   1.0000000
N2   N   0.444826079886286   0.055721407446130   0.125075017212997   1.0000000
N2   N   0.944855827104243   0.555765655457648   0.125424964049673   1.0000000
N2   N   0.778179124714855   0.055756229024030   0.124889221238150   1.0000000
N2   N   0.111504953837175   0.722419143585542   0.624847002399885   1.0000000
N2   N   0.444826079886286   0.722438005774238   0.624924982787335   1.0000000
N2   N   0.278297570555019   0.222468134176316   0.622305494060180   1.0000000
N2   N   0.778196643335033   0.722429420457936   0.623889390560893   1.0000000
N2   N   0.611493025763515   0.222391286627780   0.623852091790399   1.0000000
N2   N   0.944892221652504   0.222451618436452   0.625165789616044   1.0000000
N2   N   0.278158207979336   0.722423613587479   0.124856253053813   1.0000000
N2   N   0.111629642283262   0.222481487808274   0.125427671656629   1.0000000
N2   N   0.444880503837467   0.222412356971306   0.128438880685837   1.0000000
N2   N   0.611493025763522   0.722435072468835   0.126147908209803   1.0000000
N2   N   0.944855827104243   0.722423504980008   0.125424964049673   1.0000000
N2   N   0.778175030850328   0.222430093572321   0.125009940086031   1.0000000
N2   N   0.111518913303978   0.889081561909752   0.625106318887429   1.0000000
N2   N   0.444810332552641   0.889071832942350   0.625385782182155   1.0000000
N2   N   0.278297570555019   0.389162769711922   0.622305494060180   1.0000000
N2   N   0.611576334398006   0.389069162144324   0.619716390928334   1.0000000
N2   N   0.778175030850328   0.889078270611042   0.624990059914156   1.0000000
N2   N   0.944871744389473   0.389108737546310   0.625127522806622   1.0000000
N2   N   0.111576228332926   0.389131234274946   0.124833721002611   1.0000000
N2   N   0.278158207979336   0.889067927725001   0.124856253053813   1.0000000
N2   N   0.611485004973153   0.889086914707700   0.124791880915941   1.0000000
N2   N   0.445068968780063   0.389201151056770   0.137357213476029   1.0000000
N2   N   0.944871744389473   0.889096340176918   0.124872477193092   1.0000000
N2   N   0.778196643335033   0.389100556210080   0.126110609438675   1.0000000
N2   N   0.278201456317765   0.555790574919126   0.624642623170284   1.0000000
N2   N   0.111576228332926   0.055778327391492   0.625166278996460   1.0000000
N2   N   0.611576334398006   0.555840505587655   0.619716390928334   1.0000000
N2   N   0.444826079886286   0.055721407446130   0.624924982787335   1.0000000
N2   N   0.944855827104243   0.555765655457648   0.624575035949704   1.0000000
N2   N   0.111518913303979   0.555770684727942   0.124893681112547   1.0000000
N2   N   0.778179124714855   0.055756229024032   0.625110778762157   1.0000000
N2   N   0.278201456317765   0.055744214732270   0.125357376830088   1.0000000
N2   N   0.444880503837467   0.555801480199144   0.128438880685791   1.0000000
N2   N   0.778196024484682   0.555764678909558   0.127235874614948   1.0000000
N2   N   0.611485004973153   0.055731423598305   0.124791880915941   1.0000000
N2   N   0.444880503837467   0.555801480199144   0.621561119313910   1.0000000
N2   N   0.944892221652504   0.055773936549238   0.124834210384017   1.0000000
N2   N   0.278158207979336   0.722423613587479   0.625143746946072   1.0000000
N2   N   0.111629642283262   0.222481487808274   0.624572328343851   1.0000000
N2   N   0.444880503837467   0.222412356971416   0.621561119313910   1.0000000
N2   N   0.611493025763515   0.722435072468835   0.623852091790399   1.0000000
N2   N   0.944855827104242   0.722423504980008   0.624575035949704   1.0000000
N2   N   0.778175030850328   0.222430093572314   0.624990059914156   1.0000000
N2   N   0.111504953837175   0.722419143585542   0.125152997599822   1.0000000
N2   N   0.444826079886286   0.722438005774238   0.125075017213050   1.0000000
N2   N   0.278297570555019   0.222468134176316   0.127694505940113   1.0000000
N2   N   0.778196643335033   0.722429420457936   0.126110609438675   1.0000000
N2   N   0.611493025763515   0.222391286627780   0.126147908209807   1.0000000
N2   N   0.944892221652504   0.222451618436452   0.124834210384017   1.0000000
N2   N   0.111576228332926   0.389131234274946   0.625166278996460   1.0000000
N2   N   0.278158207979336   0.889067927725001   0.625143746946072   1.0000000
N2   N   0.611485004973153   0.889086914707700   0.625208119083794   1.0000000
N2   N   0.445068968780091   0.389201151056770   0.612642786523530   1.0000000
N2   N   0.944871744389473   0.889096340176918   0.625127522806622   1.0000000
N2   N   0.111518913303979   0.889081561909774   0.124893681112547   1.0000000
N2   N   0.778196643335033   0.389100556210080   0.623889390560893   1.0000000
N2   N   0.444810332552641   0.889071832942350   0.124614217817903   1.0000000
N2   N   0.278297570555019   0.389162769711922   0.127694505940111   1.0000000
N2   N   0.278201456317765   0.555790574919126   0.125357376830088   1.0000000
N2   N   0.611576334398006   0.389069162144324   0.130283609071372   1.0000000
N2   N   0.778175030850328   0.889078270611042   0.125009940086031   1.0000000
N2   N   0.944871744389473   0.389108737546310   0.124872477193092   1.0000000
N2   N   0.111518913303979   0.555770684727942   0.625106318887429   1.0000000
N2   N   0.278201456317765   0.055744214732273   0.624642623170284   1.0000000
N2   N   0.778196024484682   0.555764678909558   0.622764125384946   1.0000000
N2   N   0.611485004973153   0.055731423598305   0.625208119083794   1.0000000
N2   N   0.944892221652504   0.055773936549238   0.625165789616044   1.0000000
N2   N   0.054906484089448   0.110889450817010   0.375000000000000   1.0000000
N2   N   0.552546524068276   0.617225690154325   0.375000000000000   1.0000000
N2   N   0.384833692761548   0.102007297651223   0.375000000000000   1.0000000
N2   N   0.885612050946515   0.609472692140276   0.375000000000000   1.0000000
N2   N   0.721506919189162   0.109911140298550   0.375000000000000   1.0000000
N2   N   0.055926731724792   0.777968207185840   0.875000000000000   1.0000000
N2   N   0.389280998629753   0.777964137757497   0.875000000000000   1.0000000
N2   N   0.222616834941987   0.277975084137744   0.875000000000000   1.0000000
N2   N   0.722603243308645   0.777966004757765   0.875000000000000   1.0000000
N2   N   0.555943115679748   0.277986285691363   0.875000000000000   1.0000000
N2   N   0.889267595964832   0.277962288614000   0.875000000000000   1.0000000
N2   N   0.218362809958129   0.775848071645706   0.375000000000000   1.0000000
N2   N   0.054906484089403   0.277350366605581   0.375000000000000   1.0000000
N2   N   0.382855840225457   0.260913575481826   0.375000000000000   1.0000000
N2   N   0.553635652752993   0.780472202699172   0.375000000000000   1.0000000
N2   N   0.887357233738663   0.777709837518446   0.375000000000000   1.0000000
N2   N   0.721376465063911   0.275234136805940   0.375000000000000   1.0000000
N2   N   0.055933019603021   0.944643887843866   0.875000000000000   1.0000000
N2   N   0.389280998629753   0.944650194205976   0.875000000000000   1.0000000
N2   N   0.222610201870515   0.444617443980806   0.875000000000000   1.0000000
N2   N   0.555932162496066   0.444632747914697   0.875000000000000   1.0000000
N2   N   0.722602965054283   0.944634170201784   0.875000000000000   1.0000000
N2   N   0.889260914548670   0.444626171902087   0.875000000000000   1.0000000
N2   N   0.053093420009567   0.443615863622932   0.375000000000000   1.0000000
N2   N   0.218241371899549   0.940763887545305   0.375000000000000   1.0000000
N2   N   0.553785280071159   0.943559306702564   0.375000000000000   1.0000000
N2   N   0.382855840225569   0.455275598076850   0.375000000000000   1.0000000
N2   N   0.888128507134700   0.944791736793535   0.375000000000000   1.0000000
N2   N   0.721651896533459   0.442926157950258   0.375000000000000   1.0000000
N2   N   0.222606408122642   0.611285705440472   0.875000000000000   1.0000000
N2   N   0.055933923825674   0.111306677202310   0.875000000000000   1.0000000
N2   N   0.555943115679748   0.611290163321835   0.875000000000000   1.0000000
N2   N   0.389282821953472   0.111334169459699   0.875000000000000   1.0000000
N2   N   0.889250411405767   0.611291872369452   0.875000000000000   1.0000000
N2   N   0.051963053270512   0.609624848758097   0.375000000000000   1.0000000
N2   N   0.722602965054283   0.111302128186434   0.875000000000000   1.0000000
N2   N   0.218782980286115   0.107169917368430   0.375000000000000   1.0000000
N2   N   0.384833692761548   0.616159728444451   0.375000000000000   1.0000000
N2   N   0.721651896533459   0.612059071916692   0.375000000000000   1.0000000
N2   N   0.553635652752998   0.106496783387430   0.375000000000000   1.0000000
N2   N   0.389282821953472   0.611281985826685   0.875000000000000   1.0000000
N2   N   0.888442553409682   0.110887943371628   0.375000000000000   1.0000000
N2   N   0.222605725452851   0.777969529393023   0.875000000000000   1.0000000
N2   N   0.055933923825665   0.277960579956814   0.875000000000000   1.0000000
N2   N   0.389294776133713   0.278004208675431   0.875000000000000   1.0000000
N2   N   0.555944740329752   0.777962052164865   0.875000000000000   1.0000000
N2   N   0.889260914548670   0.777968075979773   0.875000000000000   1.0000000
N2   N   0.722603243308645   0.277970571883957   0.875000000000000   1.0000000
N2   N   0.051963053270486   0.775671537846315   0.375000000000000   1.0000000
N2   N   0.385629997322569   0.778223495274077   0.375000000000000   1.0000000
N2   N   0.222567084740301   0.277950209036854   0.375000000000000   1.0000000
N2   N   0.721376465064227   0.779475661591977   0.375000000000000   1.0000000
N2   N   0.552546524068251   0.268654167247336   0.375000000000000   1.0000000
N2   N   0.888128507134700   0.276670103674766   0.375000000000000   1.0000000
N2   N   0.055933019603022   0.444622465092941   0.875000000000000   1.0000000
N2   N   0.222606408122642   0.944654036016381   0.875000000000000   1.0000000
N2   N   0.555942903757410   0.944638118545627   0.875000000000000   1.0000000
N2   N   0.389294776133713   0.444623900792109   0.875000000000000   1.0000000
N2   N   0.889267595964832   0.944638640684048   0.875000000000000   1.0000000
N2   N   0.053093420009567   0.942810889720479   0.375000000000000   1.0000000
N2   N   0.722590326680134   0.444629856668628   0.875000000000000   1.0000000
N2   N   0.385629997322569   0.940739835380679   0.375000000000000   1.0000000
N2   N   0.218782980286115   0.444946396250971   0.375000000000000   1.0000000
N2   N   0.218241371899549   0.610810817687224   0.375000000000000   1.0000000
N2   N   0.721506919189162   0.944929112223315   0.375000000000000   1.0000000
N2   N   0.887357233738663   0.442980729554300   0.375000000000000   1.0000000
N2   N   0.055926731724792   0.611291857872441   0.875000000000000   1.0000000
N2   N   0.222610201870515   0.111326091223012   0.875000000000000   1.0000000
N2   N   0.722590326680134   0.611293803345242   0.875000000000000   1.0000000
N2   N   0.555944740329752   0.111316021498141   0.875000000000000   1.0000000
N2   N   0.889264713705451   0.111299023519288   0.875000000000000   1.0000000
B2   B   0.108294214998553   0.053447077637086   0.375000000000000   1.0000000
B2   B   0.619265349765025   0.579879555160148   0.375000000000000   1.0000000
B2   B   0.442091172767820   0.049523688188999   0.375000000000000   1.0000000
B2   B   0.942098946230307   0.554046635578389   0.375000000000000   1.0000000
B2   B   0.777803178465909   0.055568255899964   0.375000000000000   1.0000000
B2   B   0.111507252841279   0.722420293087143   0.875000000000000   1.0000000
B2   B   0.444820870372542   0.722452575416057   0.875000000000000   1.0000000
B2   B   0.278054450962448   0.222351070846883   0.875000000000000   1.0000000
B2   B   0.778230231953947   0.722520004865213   0.875000000000000   1.0000000
B2   B   0.611529719907464   0.222346038487992   0.875000000000000   1.0000000
B2   B   0.944814936385785   0.222386050102634   0.875000000000000   1.0000000
B2   B   0.274313260606071   0.721536537283127   0.375000000000000   1.0000000
B2   B   0.110600578258572   0.221966955795945   0.375000000000000   1.0000000
B2   B   0.438876199649153   0.208969925743093   0.375000000000000   1.0000000
B2   B   0.611223090575290   0.729598754298251   0.375000000000000   1.0000000
B2   B   0.942098946230307   0.721385643985056   0.375000000000000   1.0000000
B2   B   0.777871901929811   0.220154965957760   0.375000000000000   1.0000000
B2   B   0.111485484123655   0.889089894705662   0.875000000000000   1.0000000
B2   B   0.444830981218576   0.889082157276112   0.875000000000000   1.0000000
B2   B   0.278054450962448   0.389036713448793   0.875000000000000   1.0000000
B2   B   0.611544536965394   0.389031167727874   0.875000000000000   1.0000000
B2   B   0.778202131142063   0.889162023735193   0.875000000000000   1.0000000
B2   B   0.944847257632645   0.389044835200915   0.875000000000000   1.0000000
B2   B   0.108294214998632   0.388180470694587   0.375000000000000   1.0000000
B2   B   0.274313260606071   0.886110056656437   0.375000000000000   1.0000000
B2   B   0.610684352505005   0.890790923958398   0.375000000000000   1.0000000
B2   B   0.943094644243990   0.889158336363196   0.375000000000000   1.0000000
B2   B   0.778642643562443   0.385683487620235   0.375000000000000   1.0000000
B2   B   0.278107450115655   0.555734072742767   0.875000000000000   1.0000000
B2   B   0.111436547082187   0.055732931344722   0.875000000000000   1.0000000
B2   B   0.611544536965394   0.555846702570970   0.875000000000000   1.0000000
B2   B   0.444820870372542   0.055701628289897   0.875000000000000   1.0000000
B2   B   0.944875164659064   0.555745008277590   0.875000000000000   1.0000000
B2   B   0.107656646021065   0.554459076925038   0.375000000000000   1.0000000
B2   B   0.778182956420458   0.055758144877198   0.875000000000000   1.0000000
B2   B   0.273358063510181   0.050498748951641   0.375000000000000   1.0000000
B2   B   0.438876199649153   0.563239607239989   0.375000000000000   1.0000000
B2   B   0.777060101924486   0.555196717629203   0.375000000000000   1.0000000
B2   B   0.610684352505005   0.053226761880584   0.375000000000000   1.0000000
B2   B   0.444788083852902   0.555787459353566   0.875000000000000   1.0000000
B2   B   0.944103364301972   0.055900949613291   0.375000000000000   1.0000000
B2   B   0.278150545947981   0.722413170155242   0.875000000000000   1.0000000
B2   B   0.111422205002390   0.222377769167708   0.875000000000000   1.0000000
B2   B   0.444788083852902   0.222333957833493   0.875000000000000   1.0000000
B2   B   0.611529719907464   0.722517014753138   0.875000000000000   1.0000000
B2   B   0.944875164659064   0.722463489714912   0.875000000000000   1.0000000
B2   B   0.778202131142063   0.222373440739395   0.875000000000000   1.0000000
B2   B   0.107699001934405   0.720516167634429   0.375000000000000   1.0000000
B2   B   0.442091172767555   0.725900817911898   0.375000000000000   1.0000000
B2   B   0.273561972910087   0.217528996945678   0.375000000000000   1.0000000
B2   B   0.778642643562443   0.726292489275504   0.375000000000000   1.0000000
B2   B   0.611223090575290   0.214957669609772   0.375000000000000   1.0000000
B2   B   0.944103364301972   0.221535748022327   0.375000000000000   1.0000000
B2   B   0.111436547082187   0.389036949070774   0.875000000000000   1.0000000
B2   B   0.278150545947981   0.889070709126775   0.875000000000000   1.0000000
B2   B   0.611519046753781   0.889126957163465   0.875000000000000   1.0000000
B2   B   0.444744077533855   0.389038705433507   0.875000000000000   1.0000000
B2   B   0.944847257632645   0.889135755764704   0.875000000000000   1.0000000
B2   B   0.107656646021065   0.886530902429520   0.375000000000000   1.0000000
B2   B   0.778230231953947   0.389043560421808   0.875000000000000   1.0000000
B2   B   0.442443365837845   0.887888349585655   0.375000000000000   1.0000000
B2   B   0.273561972910095   0.389366309297740   0.375000000000000   1.0000000
B2   B   0.273358063510181   0.556192647892495   0.375000000000000   1.0000000
B2   B   0.619265349765287   0.372719127938160   0.375000000000000   1.0000000
B2   B   0.777871901929811   0.891050269306108   0.375000000000000   1.0000000
B2   B   0.943094644243990   0.387269641214169   0.375000000000000   1.0000000
B2   B   0.111485484123655   0.555728922751434   0.875000000000000   1.0000000
B2   B   0.278107450115655   0.055706710706328   0.875000000000000   1.0000000
B2   B   0.778239680091979   0.555786506712290   0.875000000000000   1.0000000
B2   B   0.611519046753394   0.055725422923165   0.875000000000000   1.0000000
B2   B   0.944814936385785   0.055762219615537   0.875000000000000   1.0000000
B2   B   0.055963515335533   0.111296587717163   0.124686779293126   1.0000000
B2   B   0.555895634904062   0.611702321931730   0.127244857514373   1.0000000
B2   B   0.389079393692033   0.110886892634499   0.125531027679045   1.0000000
B2   B   0.889681985756486   0.611507659544620   0.125269747594320   1.0000000
B2   B   0.722629329286119   0.111236667255648   0.124503904481780   1.0000000
B2   B   0.056117541308594   0.778050983991024   0.625261838206321   1.0000000
B2   B   0.389167941017977   0.778029247395796   0.625628626245810   1.0000000
B2   B   0.222468972139683   0.277901152736154   0.623350944258273   1.0000000
B2   B   0.722748911279522   0.778235120564284   0.624941345098995   1.0000000
B2   B   0.555895634904062   0.277526646305462   0.622755142485877   1.0000000
B2   B   0.889388780316815   0.277969807008156   0.625499615024632   1.0000000
B2   B   0.222608741419800   0.777971037376228   0.124602424836588   1.0000000
B2   B   0.055963515335533   0.278000260951782   0.124686779293126   1.0000000
B2   B   0.388850311142804   0.277268085761751   0.130386859560652   1.0000000
B2   B   0.555863685378385   0.778171538179504   0.124737592994811   1.0000000
B2   B   0.889568112220527   0.778190264434148   0.124844915589015   1.0000000
B2   B   0.722748911279522   0.277847124048384   0.125058654900719   1.0000000
B2   B   0.056028217310389   0.944661450426185   0.625569195377445   1.0000000
B2   B   0.389167941017977   0.944472026955447   0.625628626245810   1.0000000
B2   B   0.222500812922492   0.444742482894702   0.624640473288479   1.0000000
B2   B   0.556420529281924   0.444876931307626   0.619623919396573   1.0000000
B2   B   0.722629329286119   0.944725995363702   0.625496095518475   1.0000000
B2   B   0.889568112220527   0.444711181118729   0.625155084411546   1.0000000
B2   B   0.056028217310389   0.444700100217249   0.124430804622166   1.0000000
B2   B   0.222565858039188   0.944502375162961   0.124584914674936   1.0000000
B2   B   0.555871010310960   0.944602171821456   0.124289230098091   1.0000000
B2   B   0.388850311142804   0.444915558714449   0.130386859560652   1.0000000
B2   B   0.889388780316815   0.944752306641355   0.124500384975009   1.0000000
B2   B   0.723109752815917   0.444759263899045   0.126711735325796   1.0000000
B2   B   0.222565858039188   0.611396816209960   0.625415085325002   1.0000000
B2   B   0.055963515335533   0.111296587717162   0.625313220706303   1.0000000
B2   B   0.555895634904062   0.611702321931730   0.622755142485877   1.0000000
B2   B   0.389079393692033   0.110886892634499   0.624468972321027   1.0000000
B2   B   0.889681985756486   0.611507659544620   0.624730252405007   1.0000000
B2   B   0.056117541308593   0.611399890650638   0.124738161793239   1.0000000
B2   B   0.722629329286119   0.111236667255648   0.625496095518475   1.0000000
B2   B   0.222500812922491   0.111091663361118   0.125359526711282   1.0000000
B2   B   0.389079393692033   0.611525834390608   0.125531027679045   1.0000000
B2   B   0.723109752815917   0.611683822250012   0.126711735325796   1.0000000
B2   B   0.555863685378385   0.111025480532759   0.124737592994811   1.0000000
B2   B   0.389079393692033   0.611525834390608   0.624468972321027   1.0000000
B2   B   0.889330124769328   0.111331729051595   0.124559528142278   1.0000000
B2   B   0.222608741419800   0.777971037376228   0.625397575163417   1.0000000
B2   B   0.055963515335533   0.278000260951782   0.625313220706303   1.0000000
B2   B   0.388850311142804   0.277268085761751   0.619613140440214   1.0000000
B2   B   0.555863685378385   0.778171538179504   0.625262407004809   1.0000000
B2   B   0.889568112220527   0.778190264434148   0.625155084411546   1.0000000
B2   B   0.722748911279522   0.277847124048384   0.624941345098995   1.0000000
B2   B   0.056117541308594   0.778050983991024   0.124738161793239   1.0000000
B2   B   0.389167941017977   0.778029247395796   0.124371373754648   1.0000000
B2   B   0.222468972139727   0.277901152736154   0.126649055741625   1.0000000
B2   B   0.722748911279522   0.778235120564284   0.125058654900719   1.0000000
B2   B   0.555895634904062   0.277526646305611   0.127244857514389   1.0000000
B2   B   0.889388780316815   0.277969807008156   0.124500384975009   1.0000000
B2   B   0.056028217310389   0.444700100217249   0.625569195377445   1.0000000
B2   B   0.222565858039096   0.944502375162961   0.625415085325002   1.0000000
B2   B   0.555871010310960   0.944602171821456   0.625710769901289   1.0000000
B2   B   0.388850311142804   0.444915558714449   0.619613140440214   1.0000000
B2   B   0.889388780316815   0.944752306641355   0.625499615024632   1.0000000
B2   B   0.056028217310388   0.944661450426185   0.124430804622166   1.0000000
B2   B   0.723109752815917   0.444759263899045   0.623288264674024   1.0000000
B2   B   0.389167941017977   0.944472026955447   0.124371373754648   1.0000000
B2   B   0.222500812922491   0.444742482894702   0.125359526711282   1.0000000
B2   B   0.222565858039188   0.611396816209964   0.124584914674936   1.0000000
B2   B   0.556420529281924   0.444876931307626   0.130376080602686   1.0000000
B2   B   0.722629329286119   0.944725995363702   0.124503904481780   1.0000000
B2   B   0.889568112220527   0.444711181118729   0.124844915589015   1.0000000
B2   B   0.056117541308596   0.611399890650638   0.625261838206321   1.0000000
B2   B   0.222500812922491   0.111091663361119   0.624640473288479   1.0000000
B2   B   0.723109752815917   0.611683822250012   0.623288264674024   1.0000000
B2   B   0.555863685378385   0.111025480532673   0.625262407004809   1.0000000
B2   B   0.889330124769328   0.111331729051595   0.625440471857852   1.0000000


