data_1
_audit_creation_method   'vasp2cif'
_cell_length_a    14.93631414619966
_cell_length_b    14.936314146199727
_cell_length_c    13.341276283792837
_cell_angle_alpha    90.0
_cell_angle_beta    90.0
_cell_angle_gamma    119.99999999999984

_symmetry_space_group_name_H-M    'P 1'
loop_
_atom_site_label
_atom_site_type_symbol
_atom_site_fract_x
_atom_site_fract_y
_atom_site_fract_z
_atom_site_occupancy
C2   C   0.444444444444443   0.388888888888886   0.375000000000000   1.0000000
N2   N   0.111102490945543   0.055571397445504   0.122045182632444   1.0000000
N2   N   0.611084961302070   0.555589861709445   0.121202173775080   1.0000000
N2   N   0.444468906500103   0.055571397445504   0.122045182632551   1.0000000
N2   N   0.944430047018644   0.555549894667034   0.122378979522727   1.0000000
N2   N   0.777777777777779   0.055555555555557   0.122962774100478   1.0000000
N2   N   0.111111111111114   0.722222222222221   0.627062449014489   1.0000000
N2   N   0.444468906500103   0.722230842388362   0.627954817367460   1.0000000
N2   N   0.277743471624175   0.222248372031187   0.628797826225465   1.0000000
N2   N   0.777761935887595   0.722230842388362   0.627954817367460   1.0000000
N2   N   0.611162741430928   0.222170591902564   0.628534171097352   1.0000000
N2   N   0.944401688208300   0.222205963109904   0.627542941943363   1.0000000
N2   N   0.277783438666814   0.722213485685022   0.122378979522726   1.0000000
N2   N   0.111007850471837   0.222170591902564   0.121465828902627   1.0000000
N2   N   0.444504900407023   0.222248372031156   0.121202173775082   1.0000000
N2   N   0.611162741430928   0.722325482861672   0.121465828902648   1.0000000
N2   N   0.944430047018644   0.722213485685022   0.122378979522726   1.0000000
N2   N   0.777804274901015   0.222205963109904   0.122457058056741   1.0000000
N2   N   0.111119847648232   0.888903286314685   0.627621020477699   1.0000000
N2   N   0.444441986483402   0.888887659908706   0.627625886314990   1.0000000
N2   N   0.277743471624175   0.388828432926305   0.628797826225465   1.0000000
N2   N   0.611084961302070   0.388828432926305   0.628797826225465   1.0000000
N2   N   0.777804274901015   0.888931645125029   0.627542941943363   1.0000000
N2   N   0.944445673424622   0.388891346849933   0.627625886315027   1.0000000
N2   N   0.111102490945543   0.388864426833226   0.122045182632432   1.0000000
N2   N   0.277783438666814   0.888903286314685   0.122378979522726   1.0000000
N2   N   0.611127370223056   0.888931645125029   0.122457058056740   1.0000000
N2   N   0.444444444444443   0.388888888888886   0.121113953867098   1.0000000
N2   N   0.944445673424622   0.888887659908706   0.122374113684949   1.0000000
N2   N   0.777761935887595   0.388864426833226   0.122045182632551   1.0000000
N2   N   0.277801456270381   0.555531877062764   0.628151190369036   1.0000000
N2   N   0.111102490945543   0.055571397445505   0.627954817367457   1.0000000
N2   N   0.611084961302070   0.555589861709445   0.628797826225465   1.0000000
N2   N   0.444468906500103   0.055571397445505   0.627954817367457   1.0000000
N2   N   0.944430047018644   0.555549894667034   0.627621020477699   1.0000000
N2   N   0.111119847648232   0.555549894667034   0.122378979522726   1.0000000
N2   N   0.777777777777779   0.055555555555557   0.627037225899430   1.0000000
N2   N   0.277801456270381   0.055602912541206   0.121848809630834   1.0000000
N2   N   0.444504900407023   0.555589861709445   0.121202173775081   1.0000000
N2   N   0.777730420792573   0.555531877062764   0.121848809630834   1.0000000
N2   N   0.611127370223056   0.055529058432196   0.122457058056740   1.0000000
N2   N   0.444504900407023   0.555589861709445   0.628797826225465   1.0000000
N2   N   0.944401688208300   0.055529058432196   0.122457058056740   1.0000000
N2   N   0.277783438666814   0.722213485685022   0.627621020477699   1.0000000
N2   N   0.111007850471838   0.222170591902564   0.628534171097352   1.0000000
N2   N   0.444504900407023   0.222248372031187   0.628797826225466   1.0000000
N2   N   0.611162741430928   0.722325482861672   0.628534171097352   1.0000000
N2   N   0.944430047018644   0.722213485685022   0.627621020477699   1.0000000
N2   N   0.777804274901015   0.222205963109904   0.627542941943363   1.0000000
N2   N   0.111111111111114   0.722222222222221   0.122937550985670   1.0000000
N2   N   0.444468906500103   0.722230842388362   0.122045182632548   1.0000000
N2   N   0.277743471624175   0.222248372031156   0.121202173775082   1.0000000
N2   N   0.777761935887595   0.722230842388362   0.122045182632432   1.0000000
N2   N   0.611162741430928   0.222170591902564   0.121465828902627   1.0000000
N2   N   0.944401688208300   0.222205963109900   0.122457058056740   1.0000000
N2   N   0.111102490945543   0.388864426833226   0.627954817367457   1.0000000
N2   N   0.277783438666814   0.888903286314685   0.627621020477699   1.0000000
N2   N   0.611127370223056   0.888931645125029   0.627542941943371   1.0000000
N2   N   0.444444444444443   0.388888888888886   0.628886046133042   1.0000000
N2   N   0.944445673424622   0.888887659908706   0.627625886314985   1.0000000
N2   N   0.111119847648232   0.888903286314685   0.122378979522726   1.0000000
N2   N   0.777761935887595   0.388864426833226   0.627954817367460   1.0000000
N2   N   0.444441986483395   0.888887659908706   0.122374113684949   1.0000000
N2   N   0.277743471624175   0.388828432926305   0.121202173775076   1.0000000
N2   N   0.277801456270381   0.555531877062764   0.121848809630834   1.0000000
N2   N   0.611084961302070   0.388828432926305   0.121202173775076   1.0000000
N2   N   0.777804274901015   0.888931645125029   0.122457058056740   1.0000000
N2   N   0.944445673424622   0.388891346849933   0.122374113684948   1.0000000
N2   N   0.111119847648232   0.555549894667034   0.627621020477699   1.0000000
N2   N   0.277801456270381   0.055602912541206   0.628151190369055   1.0000000
N2   N   0.777730420792573   0.555531877062764   0.628151190369055   1.0000000
N2   N   0.611127370223056   0.055529058432196   0.627542941943363   1.0000000
N2   N   0.944401688208300   0.055529058432196   0.627542941943363   1.0000000
N2   N   0.055777268412352   0.111245635971965   0.375000000000000   1.0000000
N2   N   0.555441892268789   0.610883784537952   0.375000000000000   1.0000000
N2   N   0.388581954178375   0.111638843754523   0.375000000000000   1.0000000
N2   N   0.889044917713868   0.611189125523860   0.375000000000000   1.0000000
N2   N   0.722175486828343   0.111157846505125   0.375000000000000   1.0000000
N2   N   0.055558435999059   0.777774897333666   0.875000000000000   1.0000000
N2   N   0.388879661278962   0.777775494612112   0.875000000000000   1.0000000
N2   N   0.222208056794277   0.277770695063881   0.875000000000000   1.0000000
N2   N   0.722236573022543   0.777783884738122   0.875000000000000   1.0000000
N2   N   0.555562638269229   0.277770695063881   0.875000000000000   1.0000000
N2   N   0.888895362817018   0.277790725634506   0.875000000000000   1.0000000
N2   N   0.222159915020913   0.777746624177297   0.375000000000000   1.0000000
N2   N   0.055777268412351   0.277864965773862   0.375000000000000   1.0000000
N2   N   0.390351804588522   0.280703609177061   0.375000000000000   1.0000000
N2   N   0.555468367559376   0.777556064920962   0.375000000000000   1.0000000
N2   N   0.888718387305060   0.777539514985080   0.375000000000000   1.0000000
N2   N   0.722087697361330   0.277864965773862   0.375000000000000   1.0000000
N2   N   0.055557838720533   0.944437499999075   0.875000000000000   1.0000000
N2   N   0.388879661278962   0.944437499999075   0.875000000000000   1.0000000
N2   N   0.222219562260710   0.444444124756487   0.875000000000000   1.0000000
N2   N   0.555552607788274   0.444442970560802   0.875000000000000   1.0000000
N2   N   0.722222488298389   0.944444976598211   0.875000000000000   1.0000000
N2   N   0.888895833334253   0.444453672054367   0.875000000000000   1.0000000
N2   N   0.055793818348327   0.444512205652860   0.375000000000000   1.0000000
N2   N   0.222144207809432   0.944288415619461   0.375000000000000   1.0000000
N2   N   0.555453305377378   0.944393319355453   0.375000000000000   1.0000000
N2   N   0.390351804588522   0.442981528744807   0.375000000000000   1.0000000
N2   N   0.888940013977875   0.944393319355453   0.375000000000000   1.0000000
N2   N   0.721694489578387   0.444751379154954   0.375000000000000   1.0000000
N2   N   0.222220787058837   0.611112546274589   0.875000000000000   1.0000000
N2   N   0.055549448595186   0.111096760310966   0.875000000000000   1.0000000
N2   N   0.555562638269229   0.611125276538910   0.875000000000000   1.0000000
N2   N   0.388889208576842   0.111108770837334   0.875000000000000   1.0000000
N2   N   0.888891759216705   0.611112546274589   0.875000000000000   1.0000000
N2   N   0.055586709156234   0.611173418312646   0.375000000000000   1.0000000
N2   N   0.722222488298389   0.111110845034577   0.875000000000000   1.0000000
N2   N   0.223056889575968   0.111638843754523   0.375000000000000   1.0000000
N2   N   0.388581954178375   0.610276443756798   0.375000000000000   1.0000000
N2   N   0.721694489578387   0.610276443756798   0.375000000000000   1.0000000
N2   N   0.555468367559376   0.111245635971965   0.375000000000000   1.0000000
N2   N   0.388889208576842   0.611113771072824   0.875000000000000   1.0000000
N2   N   0.888982359677282   0.111157846505125   0.375000000000000   1.0000000
N2   N   0.222216461335245   0.777774897333666   0.875000000000000   1.0000000
N2   N   0.055549448595187   0.277786021617670   0.875000000000000   1.0000000
N2   N   0.388890362772527   0.277780725545081   0.875000000000000   1.0000000
N2   N   0.555547311715729   0.777783884738122   0.875000000000000   1.0000000
N2   N   0.888895833334253   0.777775494612112   0.875000000000000   1.0000000
N2   N   0.722236573022543   0.277786021617670   0.875000000000000   1.0000000
N2   N   0.055586709156235   0.777746624177297   0.375000000000000   1.0000000
N2   N   0.388821127680469   0.777539514985080   0.375000000000000   1.0000000
N2   N   0.222449548795315   0.277891441064360   0.375000000000000   1.0000000
N2   N   0.722087697361330   0.777556064920962   0.375000000000000   1.0000000
N2   N   0.555441892268789   0.277891441064360   0.375000000000000   1.0000000
N2   N   0.888940013977875   0.277880027955492   0.375000000000000   1.0000000
N2   N   0.055557838720533   0.444453672054367   0.875000000000000   1.0000000
N2   N   0.222220787058835   0.944441574116624   0.875000000000000   1.0000000
N2   N   0.555542607699079   0.944437970516311   0.875000000000000   1.0000000
N2   N   0.388890362772527   0.444442970560802   0.875000000000000   1.0000000
N2   N   0.888895362817018   0.944437970516311   0.875000000000000   1.0000000
N2   N   0.055793818348327   0.944614946028268   0.375000000000000   1.0000000
N2   N   0.722224562495922   0.444444124756487   0.875000000000000   1.0000000
N2   N   0.388821127680469   0.944614946028268   0.375000000000000   1.0000000
N2   N   0.223056889575968   0.444751379154954   0.375000000000000   1.0000000
N2   N   0.222144207809432   0.611189125523860   0.375000000000000   1.0000000
N2   N   0.552629724156284   0.442981528744807   0.375000000000000   1.0000000
N2   N   0.722175486828343   0.944350973656047   0.375000000000000   1.0000000
N2   N   0.888718387305060   0.444512205652860   0.375000000000000   1.0000000
N2   N   0.055558435999059   0.611116871998375   0.875000000000000   1.0000000
N2   N   0.222219562260711   0.111108770837334   0.875000000000000   1.0000000
N2   N   0.722224562495922   0.611113771072824   0.875000000000000   1.0000000
N2   N   0.555547311715729   0.111096760310966   0.875000000000000   1.0000000
N2   N   0.888888356735118   0.111110845034577   0.875000000000000   1.0000000
B2   B   0.111990913741791   0.056171472021528   0.375000000000000   1.0000000
B2   B   0.609875514077687   0.553597227479781   0.375000000000000   1.0000000
B2   B   0.444180558279638   0.056171472021528   0.375000000000000   1.0000000
B2   B   0.944448988605387   0.555571828095097   0.375000000000000   1.0000000
B2   B   0.777777777777779   0.055555555555557   0.375000000000000   1.0000000
B2   B   0.111111111111114   0.722222222222221   0.875000000000000   1.0000000
B2   B   0.444430141825291   0.722185735151876   0.875000000000000   1.0000000
B2   B   0.277810187377016   0.222254987376717   0.875000000000000   1.0000000
B2   B   0.777755593325979   0.722185735151876   0.875000000000000   1.0000000
B2   B   0.611092575824642   0.222240757509367   0.875000000000000   1.0000000
B2   B   0.944474116555454   0.222249120626959   0.875000000000000   1.0000000
B2   B   0.277761505238357   0.722210493843678   0.375000000000000   1.0000000
B2   B   0.112158270932693   0.222745802132777   0.375000000000000   1.0000000
B2   B   0.443721713401598   0.223457819255523   0.375000000000000   1.0000000
B2   B   0.610587531200387   0.721175062400315   0.375000000000000   1.0000000
B2   B   0.944448988605387   0.722210493843678   0.375000000000000   1.0000000
B2   B   0.777548974436603   0.222384086314150   0.375000000000000   1.0000000
B2   B   0.111124403104090   0.888901236110791   0.875000000000000   1.0000000
B2   B   0.444412107754907   0.888872720543664   0.875000000000000   1.0000000
B2   B   0.277810187377016   0.388888533333647   0.875000000000000   1.0000000
B2   B   0.611078345956626   0.388888533333647   0.875000000000000   1.0000000
B2   B   0.777775004071346   0.888859216777872   0.875000000000000   1.0000000
B2   B   0.944460612789665   0.388921225578422   0.875000000000000   1.0000000
B2   B   0.111990913741791   0.389152775053444   0.375000000000000   1.0000000
B2   B   0.277761505238357   0.888884344727942   0.375000000000000   1.0000000
B2   B   0.610949247018588   0.888498221455281   0.375000000000000   1.0000000
B2   B   0.944492923915658   0.888840409417671   0.375000000000000   1.0000000
B2   B   0.777161861311855   0.389152775053691   0.375000000000000   1.0000000
B2   B   0.277800655359423   0.555532677973885   0.875000000000000   1.0000000
B2   B   0.111147598181532   0.055577740006780   0.875000000000000   1.0000000
B2   B   0.611078345956626   0.555523145956032   0.875000000000000   1.0000000
B2   B   0.444430141825290   0.055577740006780   0.875000000000000   1.0000000
B2   B   0.944432097222538   0.555556500326148   0.875000000000000   1.0000000
B2   B   0.111122839489698   0.555571828095097   0.375000000000000   1.0000000
B2   B   0.777777777777779   0.055555555555557   0.875000000000000   1.0000000
B2   B   0.277808120569713   0.055616241139425   0.375000000000000   1.0000000
B2   B   0.443721713401598   0.553597227479781   0.375000000000000   1.0000000
B2   B   0.777717092193909   0.555525212763693   0.375000000000000   1.0000000
B2   B   0.610949247018588   0.055784358896873   0.375000000000000   1.0000000
B2   B   0.444444799999682   0.555523145956032   0.875000000000000   1.0000000
B2   B   0.944835111878048   0.055784358896873   0.375000000000000   1.0000000
B2   B   0.277776833007122   0.722208930229864   0.875000000000000   1.0000000
B2   B   0.111148181685517   0.222240757509367   0.875000000000000   1.0000000
B2   B   0.444444799999682   0.222254987376717   0.875000000000000   1.0000000
B2   B   0.611092575824642   0.722185151647584   0.875000000000000   1.0000000
B2   B   0.944432097222538   0.722208930229864   0.875000000000000   1.0000000
B2   B   0.777775004071346   0.222249120626959   0.875000000000000   1.0000000
B2   B   0.111111111111114   0.722222222222221   0.375000000000000   1.0000000
B2   B   0.444180558279638   0.721342419591314   0.375000000000000   1.0000000
B2   B   0.279736105854287   0.223457819255523   0.375000000000000   1.0000000
B2   B   0.777161861311855   0.721342419591314   0.375000000000000   1.0000000
B2   B   0.610587531200387   0.222745802132777   0.375000000000000   1.0000000
B2   B   0.944835111878048   0.222384086314150   0.375000000000000   1.0000000
B2   B   0.111147598181532   0.388903191508038   0.875000000000000   1.0000000
B2   B   0.277776833007122   0.888901236110791   0.875000000000000   1.0000000
B2   B   0.611084212706150   0.888859216777874   0.875000000000000   1.0000000
B2   B   0.444444444444443   0.388888888888886   0.875000000000000   1.0000000
B2   B   0.944460612789665   0.888872720543664   0.875000000000000   1.0000000
B2   B   0.111122839489698   0.888884344727942   0.375000000000000   1.0000000
B2   B   0.777755593325979   0.388903191508038   0.875000000000000   1.0000000
B2   B   0.444347485502632   0.888840409417671   0.375000000000000   1.0000000
B2   B   0.279736105854287   0.389611619931731   0.375000000000000   1.0000000
B2   B   0.277808120569713   0.555525212763693   0.375000000000000   1.0000000
B2   B   0.609875514077687   0.389611619931731   0.375000000000000   1.0000000
B2   B   0.777548974436603   0.888498221455281   0.375000000000000   1.0000000
B2   B   0.944492923915658   0.388985847830697   0.375000000000000   1.0000000
B2   B   0.111124403104112   0.555556500326148   0.875000000000000   1.0000000
B2   B   0.277800655359423   0.055601310718591   0.875000000000000   1.0000000
B2   B   0.777732022614490   0.555532677973885   0.875000000000000   1.0000000
B2   B   0.611084212706150   0.055558329261625   0.875000000000000   1.0000000
B2   B   0.944474116555457   0.055558329261619   0.875000000000000   1.0000000
B2   B   0.055549224867845   0.111164329363968   0.122204215003788   1.0000000
B2   B   0.555536384695560   0.611072769392000   0.121585495159756   1.0000000
B2   B   0.388954895877828   0.111266434221929   0.121999066958193   1.0000000
B2   B   0.888774038084276   0.611053685708745   0.122421562357569   1.0000000
B2   B   0.722221491616261   0.111111841716757   0.122860498564386   1.0000000
B2   B   0.055537805048041   0.777795528284981   0.627208212693467   1.0000000
B2   B   0.388930288602391   0.777764421744207   0.627534243944707   1.0000000
B2   B   0.222260563941637   0.277796948637336   0.628414504840414   1.0000000
B2   B   0.722169003969385   0.777784108465907   0.627795784996188   1.0000000
B2   B   0.555536384695560   0.277796948637336   0.628414504840667   1.0000000
B2   B   0.888872122294780   0.277744244589786   0.627354727284227   1.0000000
B2   B   0.222257723237238   0.777795528284981   0.122791787306806   1.0000000
B2   B   0.055549224867845   0.277718228836955   0.122204215003807   1.0000000
B2   B   0.388933672888004   0.277867345776365   0.121962415219857   1.0000000
B2   B   0.555615104496105   0.777784108465907   0.122204215003807   1.0000000
B2   B   0.888834133141437   0.777764421744207   0.122465756055119   1.0000000
B2   B   0.722169003969315   0.277718228836955   0.122204215003786   1.0000000
B2   B   0.055568911589828   0.944499200191891   0.627534243944707   1.0000000
B2   B   0.388930288602391   0.944499200191891   0.627534243944707   1.0000000
B2   B   0.222311538344242   0.444378437455501   0.628000933042320   1.0000000
B2   B   0.555465987557321   0.444399660445325   0.628037584780292   1.0000000
B2   B   0.722221491616261   0.944442983233193   0.627139501435982   1.0000000
B2   B   0.888834133141437   0.444403044730937   0.627534243944707   1.0000000
B2   B   0.055568911589826   0.444403044730937   0.122465756055118   1.0000000
B2   B   0.222279647624414   0.944559295249063   0.122421562357569   1.0000000
B2   B   0.555589088743979   0.944461211038549   0.122645272715401   1.0000000
B2   B   0.388933672888004   0.444399660445325   0.121962415219869   1.0000000
B2   B   0.888872122294780   0.944461211038549   0.122645272715401   1.0000000
B2   B   0.722066899110637   0.444378437455501   0.121999066958198   1.0000000
B2   B   0.222279647624414   0.611053685708745   0.627578437642867   1.0000000
B2   B   0.055549224867845   0.111164329363990   0.627795784996188   1.0000000
B2   B   0.555536384695560   0.611072769392000   0.628414504840667   1.0000000
B2   B   0.388954895877828   0.111266434221929   0.628000933042320   1.0000000
B2   B   0.888774038084266   0.611053685708745   0.627578437642867   1.0000000
B2   B   0.055537805048041   0.611075610096217   0.122791787306806   1.0000000
B2   B   0.722221491616261   0.111111841716756   0.627139501435982   1.0000000
B2   B   0.222311538344242   0.111266434221929   0.121999066958198   1.0000000
B2   B   0.388954895877828   0.611021794988672   0.121999066958198   1.0000000
B2   B   0.722066899110637   0.611021794988672   0.121999066958198   1.0000000
B2   B   0.555615104496105   0.111164329363968   0.122204215003807   1.0000000
B2   B   0.388954895877828   0.611021794988672   0.628000933042320   1.0000000
B2   B   0.888890350100136   0.111111841716756   0.122860498564386   1.0000000
B2   B   0.222257723237238   0.777795528284981   0.627208212693467   1.0000000
B2   B   0.055549224867845   0.277718228836955   0.627795784996188   1.0000000
B2   B   0.388933672888004   0.277867345776365   0.628037584780292   1.0000000
B2   B   0.555615104496105   0.777784108465907   0.627795784996188   1.0000000
B2   B   0.888834133141437   0.777764421744205   0.627534243944699   1.0000000
B2   B   0.722169003969385   0.277718228836955   0.627795784996188   1.0000000
B2   B   0.055537805048042   0.777795528284981   0.122791787306807   1.0000000
B2   B   0.388930288602391   0.777764421744205   0.122465756055119   1.0000000
B2   B   0.222260563941637   0.277796948637336   0.121585495159767   1.0000000
B2   B   0.722169003969385   0.777784108465907   0.122204215003807   1.0000000
B2   B   0.555536384695561   0.277796948637336   0.121585495159761   1.0000000
B2   B   0.888872122294780   0.277744244589786   0.122645272715401   1.0000000
B2   B   0.055568911589828   0.444403044730937   0.627534243944707   1.0000000
B2   B   0.222279647624414   0.944559295249053   0.627578437642867   1.0000000
B2   B   0.555589088743979   0.944461211038549   0.627354727284227   1.0000000
B2   B   0.388933672888004   0.444399660445325   0.628037584780292   1.0000000
B2   B   0.888872122294780   0.944461211038549   0.627354727284227   1.0000000
B2   B   0.055568911589829   0.944499200191891   0.122465756055119   1.0000000
B2   B   0.722066899110637   0.444378437455500   0.628000933042320   1.0000000
B2   B   0.388930288602391   0.944499200191891   0.122465756055118   1.0000000
B2   B   0.222311538344242   0.444378437455501   0.121999066958198   1.0000000
B2   B   0.222279647624414   0.611053685708745   0.122421562357569   1.0000000
B2   B   0.555465987557321   0.444399660445325   0.121962415219856   1.0000000
B2   B   0.722221491616261   0.944442983233193   0.122860498564386   1.0000000
B2   B   0.888834133141437   0.444403044730937   0.122465756055119   1.0000000
B2   B   0.055537805048041   0.611075610096216   0.627208212693467   1.0000000
B2   B   0.222311538344242   0.111266434221929   0.628000933042320   1.0000000
B2   B   0.722066899110637   0.611021794988672   0.628000933042320   1.0000000
B2   B   0.555615104496105   0.111164329363990   0.627795784996188   1.0000000
B2   B   0.888890350100136   0.111111841716756   0.627139501435982   1.0000000


