data_1
_audit_creation_method   'vasp2cif'
_cell_length_a    14.93631414619966
_cell_length_b    14.936314146199727
_cell_length_c    13.341276283792837
_cell_angle_alpha    90.0
_cell_angle_beta    90.0
_cell_angle_gamma    119.99999999999984

_symmetry_space_group_name_H-M    'P 1'
loop_
_atom_site_label
_atom_site_type_symbol
_atom_site_fract_x
_atom_site_fract_y
_atom_site_fract_z
_atom_site_occupancy
N2   N   0.111069312876750   0.055530946517143   0.124873387380534   1.0000000
N2   N   0.611206645533806   0.555654487162627   0.125340402569094   1.0000000
N2   N   0.444475334354408   0.055552246241493   0.124756074963813   1.0000000
N2   N   0.944423884222556   0.555496736418317   0.124734999443996   1.0000000
N2   N   0.777813974127274   0.055566726484274   0.124891543642520   1.0000000
N2   N   0.111089821172730   0.722184885451863   0.625134914662567   1.0000000
N2   N   0.444455761939968   0.722208517072300   0.625182845451483   1.0000000
N2   N   0.277689342442936   0.222173095655328   0.625373159248475   1.0000000
N2   N   0.777784096163159   0.722250207404653   0.625115876900454   1.0000000
N2   N   0.611181921615537   0.222155980238305   0.625454944682551   1.0000000
N2   N   0.944431556829421   0.222180833941899   0.625080148420956   1.0000000
N2   N   0.277775135656643   0.722189776517829   0.124858348344770   1.0000000
N2   N   0.111032866267253   0.222166769154541   0.124827915204104   1.0000000
N2   N   0.444452802707194   0.222206176045236   0.124672776126417   1.0000000
N2   N   0.611190353387338   0.722353782416318   0.124601094648439   1.0000000
N2   N   0.944414385932938   0.722190290630710   0.124786772959213   1.0000000
N2   N   0.777826528162613   0.222166567641640   0.124814077351514   1.0000000
N2   N   0.111089951009422   0.888872964812972   0.625142759583300   1.0000000
N2   N   0.444473921003177   0.888884620019187   0.625143022219695   1.0000000
N2   N   0.277661278848379   0.388810362939251   0.625442798102517   1.0000000
N2   N   0.611262091921159   0.388724727087517   0.625715705594493   1.0000000
N2   N   0.777813397034441   0.888951334349448   0.625243399561244   1.0000000
N2   N   0.944444141101055   0.388829333680250   0.625135461720194   1.0000000
N2   N   0.111052413057515   0.388829534071568   0.124839243077985   1.0000000
N2   N   0.277785636906607   0.888878203168821   0.124877499654765   1.0000000
N2   N   0.611155581385711   0.888926032344860   0.124796269027811   1.0000000
N2   N   0.444223436144691   0.388760725030102   0.124774115574144   1.0000000
N2   N   0.944426683183895   0.888886359409726   0.124853285615819   1.0000000
N2   N   0.777836071707883   0.388791813136484   0.124508343774734   1.0000000
N2   N   0.277725258464789   0.555497364340614   0.625319849056197   1.0000000
N2   N   0.111069312876750   0.055530946517143   0.625126612619466   1.0000000
N2   N   0.611206645533806   0.555654487162627   0.624659597430907   1.0000000
N2   N   0.444475334354408   0.055552246241493   0.625243925036185   1.0000000
N2   N   0.944423884222556   0.555496736418317   0.625265000556004   1.0000000
N2   N   0.111077888171673   0.555501034276521   0.124839938204867   1.0000000
N2   N   0.777813974127274   0.055566726484274   0.625108456357481   1.0000000
N2   N   0.277771070151622   0.055551372230408   0.124770202783965   1.0000000
N2   N   0.444335567254283   0.555492449569596   0.124677670950870   1.0000000
N2   N   0.777776454591494   0.555505830728382   0.124827177208953   1.0000000
N2   N   0.611152087032500   0.055540843152133   0.124892571563824   1.0000000
N2   N   0.444335567254283   0.555492449569596   0.625322329049129   1.0000000
N2   N   0.944429472472932   0.055548791430966   0.124913399147383   1.0000000
N2   N   0.277775135656643   0.722189776517829   0.625141651655228   1.0000000
N2   N   0.111032866267253   0.222166769154541   0.625172084795897   1.0000000
N2   N   0.444452802707194   0.222206176045236   0.625327223873584   1.0000000
N2   N   0.611190353387338   0.722353782416318   0.625398905351561   1.0000000
N2   N   0.944414385932938   0.722190290630710   0.625213227040788   1.0000000
N2   N   0.777826528162613   0.222166567641640   0.625185922648485   1.0000000
N2   N   0.111089821172730   0.722184885451863   0.124865085337433   1.0000000
N2   N   0.444455761939968   0.722208517072300   0.124817154548517   1.0000000
N2   N   0.277689342442936   0.222173095655328   0.124626840751524   1.0000000
N2   N   0.777784096163159   0.722250207404653   0.124884123099545   1.0000000
N2   N   0.611181921615537   0.222155980238305   0.124545055317449   1.0000000
N2   N   0.944431556829421   0.222180833941899   0.124919851579044   1.0000000
N2   N   0.111052413057515   0.388829534071568   0.625160756922016   1.0000000
N2   N   0.277785636906607   0.888878203168821   0.625122500345234   1.0000000
N2   N   0.611155581385711   0.888926032344860   0.625203730972190   1.0000000
N2   N   0.444223436144691   0.388760725030102   0.625225884425857   1.0000000
N2   N   0.944426683183895   0.888886359409726   0.625146714384181   1.0000000
N2   N   0.111089951009422   0.888872964812972   0.124857240416698   1.0000000
N2   N   0.777836071707883   0.388791813136484   0.625491656225266   1.0000000
N2   N   0.444473921003177   0.888884620019187   0.124856977780304   1.0000000
N2   N   0.277661278848379   0.388810362939251   0.124557201897482   1.0000000
N2   N   0.277725258464789   0.555497364340614   0.124680150943803   1.0000000
N2   N   0.611262091921159   0.388724727087517   0.124284294405506   1.0000000
N2   N   0.777813397034441   0.888951334349448   0.124756600438756   1.0000000
N2   N   0.944444141101055   0.388829333680250   0.124864538279806   1.0000000
N2   N   0.111077888171673   0.555501034276521   0.625160061795132   1.0000000
N2   N   0.277771070151622   0.055551372230408   0.625229797216036   1.0000000
N2   N   0.777776454591494   0.555505830728382   0.625172822791046   1.0000000
N2   N   0.611152087032500   0.055540843152133   0.625107428436175   1.0000000
N2   N   0.944429472472932   0.055548791430966   0.625086600852618   1.0000000
N2   N   0.056214045337900   0.111417160051946   0.375000000000000   1.0000000
N2   N   0.388833645491604   0.111068428179341   0.375000000000000   1.0000000
N2   N   0.889984774654946   0.611331961736878   0.375000000000000   1.0000000
N2   N   0.721827368649294   0.111836571623966   0.375000000000000   1.0000000
N2   N   0.055568100818473   0.777793870568261   0.875000000000000   1.0000000
N2   N   0.388874849975094   0.777798093691518   0.875000000000000   1.0000000
N2   N   0.222232874036454   0.277791286514855   0.875000000000000   1.0000000
N2   N   0.722222061740444   0.777780330821165   0.875000000000000   1.0000000
N2   N   0.555535129422472   0.277772296777927   0.875000000000000   1.0000000
N2   N   0.888889502350379   0.277794851636991   0.875000000000000   1.0000000
N2   N   0.222313653804810   0.777957495456035   0.375000000000000   1.0000000
N2   N   0.055825709576992   0.277807134245374   0.375000000000000   1.0000000
N2   N   0.394396157195596   0.281859688599277   0.375000000000000   1.0000000
N2   N   0.555650582239436   0.777180281682285   0.375000000000000   1.0000000
N2   N   0.887770190513692   0.776108026505055   0.375000000000000   1.0000000
N2   N   0.720913134703557   0.278993312500270   0.375000000000000   1.0000000
N2   N   0.055560637342068   0.944453803775336   0.875000000000000   1.0000000
N2   N   0.388875559399956   0.944444070284828   0.875000000000000   1.0000000
N2   N   0.222228377519086   0.444468230794239   0.875000000000000   1.0000000
N2   N   0.555552828617052   0.444458596307191   0.875000000000000   1.0000000
N2   N   0.722215196091002   0.944447429120609   0.875000000000000   1.0000000
N2   N   0.888898842963002   0.444468382594522   0.875000000000000   1.0000000
N2   N   0.055149017803330   0.444257519379943   0.375000000000000   1.0000000
N2   N   0.222394950557418   0.944671199971456   0.375000000000000   1.0000000
N2   N   0.555563920792080   0.945238672755525   0.375000000000000   1.0000000
N2   N   0.392261364220114   0.442891529251350   0.375000000000000   1.0000000
N2   N   0.889431012916929   0.944557999024478   0.375000000000000   1.0000000
N2   N   0.717612912265793   0.445561394266263   0.375000000000000   1.0000000
N2   N   0.222215870448356   0.611133451970426   0.875000000000000   1.0000000
N2   N   0.055561839141501   0.111119271149802   0.875000000000000   1.0000000
N2   N   0.555546094223270   0.611119255777597   0.875000000000000   1.0000000
N2   N   0.388871634891955   0.111091047332267   0.875000000000000   1.0000000
N2   N   0.888912496008162   0.611135531538918   0.875000000000000   1.0000000
N2   N   0.055604643821705   0.611106316195924   0.375000000000000   1.0000000
N2   N   0.722211224937324   0.111117894815858   0.875000000000000   1.0000000
N2   N   0.224277894923936   0.112882904819566   0.375000000000000   1.0000000
N2   N   0.386974125252750   0.610674524994836   0.375000000000000   1.0000000
N2   N   0.720110901351700   0.605458587497365   0.375000000000000   1.0000000
N2   N   0.555314307593764   0.113595556886905   0.375000000000000   1.0000000
N2   N   0.388877413784860   0.611138638114723   0.875000000000000   1.0000000
N2   N   0.888880806410593   0.111290714610183   0.375000000000000   1.0000000
N2   N   0.222218022434910   0.777791319005162   0.875000000000000   1.0000000
N2   N   0.055562937047414   0.277793781876301   0.875000000000000   1.0000000
N2   N   0.388885681598140   0.277771747038833   0.875000000000000   1.0000000
N2   N   0.555539838329428   0.777784666925331   0.875000000000000   1.0000000
N2   N   0.888901854946398   0.777791854476934   0.875000000000000   1.0000000
N2   N   0.722213846189863   0.277792413606770   0.875000000000000   1.0000000
N2   N   0.055866507624150   0.778011112615937   0.375000000000000   1.0000000
N2   N   0.388896896587838   0.777948906568982   0.375000000000000   1.0000000
N2   N   0.223424953420669   0.277770657076744   0.375000000000000   1.0000000
N2   N   0.723440152846145   0.777729142684531   0.375000000000000   1.0000000
N2   N   0.554167656207993   0.282925446671423   0.375000000000000   1.0000000
N2   N   0.888225938586109   0.278085017810577   0.375000000000000   1.0000000
N2   N   0.055560220303671   0.444465734610277   0.875000000000000   1.0000000
N2   N   0.222214864201345   0.944441678416424   0.875000000000000   1.0000000
N2   N   0.555541069819853   0.944449664778967   0.875000000000000   1.0000000
N2   N   0.388890935144572   0.444466117147580   0.875000000000000   1.0000000
N2   N   0.888894188253807   0.944452058777010   0.875000000000000   1.0000000
N2   N   0.055918407657779   0.944665296261167   0.375000000000000   1.0000000
N2   N   0.722233864074560   0.444472232493368   0.875000000000000   1.0000000
N2   N   0.389000047906582   0.944759418709127   0.375000000000000   1.0000000
N2   N   0.223428975223386   0.444014073699267   0.375000000000000   1.0000000
N2   N   0.221560169598460   0.611002828076177   0.375000000000000   1.0000000
N2   N   0.722251834024114   0.944421188314007   0.375000000000000   1.0000000
N2   N   0.886859693469815   0.444595426634569   0.375000000000000   1.0000000
N2   N   0.055566147660520   0.611130989822921   0.875000000000000   1.0000000
N2   N   0.222220766397583   0.111109027090635   0.875000000000000   1.0000000
N2   N   0.722230983111047   0.611124242404141   0.875000000000000   1.0000000
N2   N   0.555538671546390   0.111108726512608   0.875000000000000   1.0000000
N2   N   0.888889921911416   0.111118943512916   0.875000000000000   1.0000000
B2   B   0.112661380078128   0.056572137155436   0.375000000000000   1.0000000
B2   B   0.603985742743485   0.536043893079664   0.375000000000000   1.0000000
B2   B   0.444436450509258   0.056287878296122   0.375000000000000   1.0000000
B2   B   0.944245744864275   0.555552295390523   0.375000000000000   1.0000000
B2   B   0.777183229002211   0.055402854082234   0.375000000000000   1.0000000
B2   B   0.111105009126870   0.722230218932982   0.875000000000000   1.0000000
B2   B   0.444457053220569   0.722176821928280   0.875000000000000   1.0000000
B2   B   0.277894389175218   0.222314756796461   0.875000000000000   1.0000000
B2   B   0.777676215299133   0.722122122214347   0.875000000000000   1.0000000
B2   B   0.611055971125874   0.222296498834917   0.875000000000000   1.0000000
B2   B   0.944459272752288   0.222247509685754   0.875000000000000   1.0000000
B2   B   0.277998392496032   0.722186128010647   0.375000000000000   1.0000000
B2   B   0.112651155031709   0.222861090074947   0.375000000000000   1.0000000
B2   B   0.444805005271003   0.222986994374118   0.375000000000000   1.0000000
B2   B   0.610815215641396   0.717551691001280   0.375000000000000   1.0000000
B2   B   0.944265207354192   0.721870923008462   0.375000000000000   1.0000000
B2   B   0.776493216875699   0.223352882742444   0.375000000000000   1.0000000
B2   B   0.111108560978442   0.888891096442686   0.875000000000000   1.0000000
B2   B   0.444432163770030   0.888871986645652   0.875000000000000   1.0000000
B2   B   0.277926510113489   0.388975681674905   0.875000000000000   1.0000000
B2   B   0.611047458705679   0.388973412541901   0.875000000000000   1.0000000
B2   B   0.777708138499601   0.888782763759950   0.875000000000000   1.0000000
B2   B   0.944436261505354   0.388937514446768   0.875000000000000   1.0000000
B2   B   0.112337588906684   0.389214906590059   0.375000000000000   1.0000000
B2   B   0.278014061687116   0.889180379025593   0.375000000000000   1.0000000
B2   B   0.610406866010981   0.887640981146884   0.375000000000000   1.0000000
B2   B   0.462844391168649   0.397921285116200   0.375000000000000   1.0000000
B2   B   0.943797174006138   0.887661520210866   0.375000000000000   1.0000000
B2   B   0.773426161609308   0.390403696441580   0.375000000000000   1.0000000
B2   B   0.277870407874006   0.555594524319663   0.875000000000000   1.0000000
B2   B   0.111153655088931   0.055580493169846   0.875000000000000   1.0000000
B2   B   0.611037624488941   0.555506681638795   0.875000000000000   1.0000000
B2   B   0.444434046190168   0.055593692045661   0.875000000000000   1.0000000
B2   B   0.944401665308563   0.555582113715397   0.875000000000000   1.0000000
B2   B   0.110948415349181   0.555502354846607   0.375000000000000   1.0000000
B2   B   0.777735888415142   0.055519183164324   0.875000000000000   1.0000000
B2   B   0.278452736064455   0.056203059931035   0.375000000000000   1.0000000
B2   B   0.443060717467830   0.553882380081415   0.375000000000000   1.0000000
B2   B   0.778300388439885   0.555123677751811   0.375000000000000   1.0000000
B2   B   0.610476649641615   0.056964799563757   0.375000000000000   1.0000000
B2   B   0.444518108172889   0.555560848139657   0.875000000000000   1.0000000
B2   B   0.944821010020779   0.055583781503448   0.375000000000000   1.0000000
B2   B   0.277804374563853   0.722227956271500   0.875000000000000   1.0000000
B2   B   0.111202628931339   0.222278774387172   0.875000000000000   1.0000000
B2   B   0.444473555083896   0.222315338735029   0.875000000000000   1.0000000
B2   B   0.611044933854708   0.722092348434955   0.875000000000000   1.0000000
B2   B   0.944387632131031   0.722194465824888   0.875000000000000   1.0000000
B2   B   0.777730375176856   0.222259319987020   0.875000000000000   1.0000000
B2   B   0.111170399699433   0.722257323135109   0.375000000000000   1.0000000
B2   B   0.444696191642556   0.721308656246915   0.375000000000000   1.0000000
B2   B   0.282895328895866   0.226004072610349   0.375000000000000   1.0000000
B2   B   0.774093872504106   0.717420656684614   0.375000000000000   1.0000000
B2   B   0.609473553560933   0.226861164342858   0.375000000000000   1.0000000
B2   B   0.944411931838964   0.222637215476864   0.375000000000000   1.0000000
B2   B   0.111192166539765   0.388948449318487   0.875000000000000   1.0000000
B2   B   0.277786780113326   0.888905072596407   0.875000000000000   1.0000000
B2   B   0.611060252812262   0.888802902800919   0.875000000000000   1.0000000
B2   B   0.444543832991163   0.388984003541919   0.875000000000000   1.0000000
B2   B   0.944405203227974   0.888839790050411   0.875000000000000   1.0000000
B2   B   0.111371623546240   0.889055510044743   0.375000000000000   1.0000000
B2   B   0.777701635923326   0.388954158247392   0.875000000000000   1.0000000
B2   B   0.444445422068853   0.888911059410283   0.375000000000000   1.0000000
B2   B   0.282288292812049   0.389190330634581   0.375000000000000   1.0000000
B2   B   0.277730203671630   0.555454225119777   0.375000000000000   1.0000000
B2   B   0.600231649371378   0.399607690164833   0.375000000000000   1.0000000
B2   B   0.777641003193282   0.887649162813405   0.375000000000000   1.0000000
B2   B   0.943220224725622   0.389359486449863   0.375000000000000   1.0000000
B2   B   0.111139697851328   0.555591331247637   0.875000000000000   1.0000000
B2   B   0.277818484129114   0.055604508214507   0.875000000000000   1.0000000
B2   B   0.777678095589358   0.555550245640436   0.875000000000000   1.0000000
B2   B   0.611065699248379   0.055552976545460   0.875000000000000   1.0000000
B2   B   0.944445154342846   0.055536187775404   0.875000000000000   1.0000000
B2   B   0.055555476147180   0.111132647847997   0.125218213005068   1.0000000
B2   B   0.555637661405207   0.610928263881110   0.127912137094595   1.0000000
B2   B   0.389073635050065   0.111429992971498   0.125193306525316   1.0000000
B2   B   0.888515411807384   0.610905135675676   0.125255159150951   1.0000000
B2   B   0.722235565303272   0.111095284537258   0.125235506650916   1.0000000
B2   B   0.055388188352321   0.777675311019815   0.624831572028372   1.0000000
B2   B   0.389040664543936   0.777639291929965   0.624707187490344   1.0000000
B2   B   0.222372449088269   0.277905404567753   0.624810490047334   1.0000000
B2   B   0.721962096791041   0.777535202060744   0.624427253343740   1.0000000
B2   B   0.555729214490593   0.278127688163549   0.624604952380148   1.0000000
B2   B   0.888859040463279   0.277741725585632   0.624787348435495   1.0000000
B2   B   0.222249733430425   0.777717340504696   0.125196913480637   1.0000000
B2   B   0.055593137290428   0.277772542984820   0.125222767619965   1.0000000
B2   B   0.389135400804587   0.278202085431395   0.125584162062912   1.0000000
B2   B   0.555665589055559   0.777545345014113   0.125530828179180   1.0000000
B2   B   0.888567867823339   0.777580329421963   0.125300757594464   1.0000000
B2   B   0.722186410352287   0.277809521947905   0.125103952946770   1.0000000
B2   B   0.055461499010356   0.944417480040370   0.624795741322355   1.0000000
B2   B   0.389005343227219   0.944507858628107   0.624808083050323   1.0000000
B2   B   0.222376059968440   0.444407788173867   0.624786209806424   1.0000000
B2   B   0.555611188804867   0.444511116142970   0.620220500912949   1.0000000
B2   B   0.722182137428414   0.944323173447328   0.624730183831667   1.0000000
B2   B   0.888719884126741   0.444341801061963   0.624864601803018   1.0000000
B2   B   0.055548882744608   0.444373895458031   0.125220812119432   1.0000000
B2   B   0.222265104436631   0.944528946296209   0.125165019217745   1.0000000
B2   B   0.555637425088020   0.944381077818232   0.125276604346571   1.0000000
B2   B   0.389172081194797   0.444490044385261   0.125884833506707   1.0000000
B2   B   0.888746086160867   0.944334631607669   0.125235687637050   1.0000000
B2   B   0.721891054989497   0.444292238151364   0.125472584032729   1.0000000
B2   B   0.222314130250143   0.610990986081649   0.624801370109870   1.0000000
B2   B   0.055555476147180   0.111132647847997   0.624781786994933   1.0000000
B2   B   0.555637661405207   0.610928263881110   0.622087862905406   1.0000000
B2   B   0.389073635050065   0.111429992971498   0.624806693474683   1.0000000
B2   B   0.888515411807384   0.610905135675676   0.624744840849049   1.0000000
B2   B   0.055431209977317   0.610989156417026   0.125160696246309   1.0000000
B2   B   0.722235565303272   0.111095284537258   0.624764493349084   1.0000000
B2   B   0.222326862458227   0.111296627414116   0.125162768272448   1.0000000
B2   B   0.389139158737542   0.610899780379148   0.125545522929795   1.0000000
B2   B   0.721731229541513   0.610835164647031   0.126135949998218   1.0000000
B2   B   0.555652246794208   0.111243512963462   0.125168339952611   1.0000000
B2   B   0.389139158737542   0.610899780379148   0.624454477070205   1.0000000
B2   B   0.888860502752298   0.111067658000971   0.125237801255070   1.0000000
B2   B   0.222249733430425   0.777717340504696   0.624803086519364   1.0000000
B2   B   0.055593137290428   0.277772542984820   0.624777232380035   1.0000000
B2   B   0.389135400804587   0.278202085431395   0.624415837937088   1.0000000
B2   B   0.555665589055559   0.777545345014113   0.624469171820819   1.0000000
B2   B   0.888567867823339   0.777580329421963   0.624699242405535   1.0000000
B2   B   0.722186410352287   0.277809521947905   0.624896047053231   1.0000000
B2   B   0.055388188352321   0.777675311019815   0.125168427971628   1.0000000
B2   B   0.389040664543936   0.777639291929965   0.125292812509657   1.0000000
B2   B   0.222372449088269   0.277905404567753   0.125189509952666   1.0000000
B2   B   0.721962096791041   0.777535202060744   0.125572746656261   1.0000000
B2   B   0.555729214490593   0.278127688163549   0.125395047619852   1.0000000
B2   B   0.888859040463279   0.277741725585632   0.125212651564506   1.0000000
B2   B   0.055548882744608   0.444373895458031   0.624779187880567   1.0000000
B2   B   0.222265104436631   0.944528946296209   0.624834980782255   1.0000000
B2   B   0.555637425088020   0.944381077818232   0.624723395653429   1.0000000
B2   B   0.389172081194797   0.444490044385261   0.624115166493293   1.0000000
B2   B   0.888746086160867   0.944334631607669   0.624764312362948   1.0000000
B2   B   0.055461499010356   0.944417480040370   0.125204258677645   1.0000000
B2   B   0.721891054989497   0.444292238151364   0.624527415967272   1.0000000
B2   B   0.389005343227219   0.944507858628107   0.125191916949677   1.0000000
B2   B   0.222376059968440   0.444407788173867   0.125213790193576   1.0000000
B2   B   0.222314130250143   0.610990986081649   0.125198629890130   1.0000000
B2   B   0.555611188804867   0.444511116142970   0.129779499087051   1.0000000
B2   B   0.722182137428414   0.944323173447328   0.125269816168332   1.0000000
B2   B   0.888719884126741   0.444341801061963   0.125135398196984   1.0000000
B2   B   0.055431209977317   0.610989156417026   0.624839303753691   1.0000000
B2   B   0.222326862458227   0.111296627414116   0.624837231727553   1.0000000
B2   B   0.721731229541513   0.610835164647031   0.623864050001781   1.0000000
B2   B   0.555652246794208   0.111243512963462   0.624831660047389   1.0000000
B2   B   0.888860502752298   0.111067658000971   0.624762198744929   1.0000000
C2   C   0.554816734985744   0.603449092970910   0.375000000000000   1.0000000


