data_1
_audit_creation_method   'vasp2cif'
_cell_length_a    17.52789999999977
_cell_length_b    17.52789999999977
_cell_length_c    15.0
_cell_angle_alpha    90.0
_cell_angle_beta    90.0
_cell_angle_gamma    119.99999999999916

_symmetry_space_group_name_H-M    'P 1'
loop_
_atom_site_label
_atom_site_type_symbol
_atom_site_fract_x
_atom_site_fract_y
_atom_site_fract_z
_atom_site_occupancy
B2   B   0.902571282594567   0.950568107570374   0.110995103519642   1.0000000
B2   B   0.904553343786038   0.094742504977967   0.111053291682710   1.0000000
B2   B   0.905028783189498   0.237923479934860   0.111039975169603   1.0000000
B2   B   0.905108200146966   0.380905269913461   0.111041055158748   1.0000000
B2   B   0.904792327381602   0.523739573159000   0.111017131898864   1.0000000
B2   B   0.903047202226750   0.666148457240057   0.111066432809054   1.0000000
B2   B   0.902254210780687   0.808115689695900   0.111036828520374   1.0000000
B2   B   0.046714634194449   0.952012582922904   0.111033191450413   1.0000000
B2   B   0.047637772449533   0.095445289477285   0.111020495986576   1.0000000
B2   B   0.048255845001079   0.238495721670912   0.111007735911327   1.0000000
B2   B   0.048270983822503   0.381167233559846   0.111030401573890   1.0000000
B2   B   0.048056865012187   0.523833907808493   0.111027765803685   1.0000000
B2   B   0.047398238966094   0.666455937260240   0.111038580222420   1.0000000
B2   B   0.046708234144635   0.809100799742424   0.111023792033235   1.0000000
B2   B   0.190223714317653   0.952374899852733   0.111011376414436   1.0000000
B2   B   0.190840117471771   0.096112497141106   0.111044240182354   1.0000000
B2   B   0.192529354933351   0.240632602040082   0.110974031235666   1.0000000
B2   B   0.191769764927431   0.382122057652882   0.110962699354379   1.0000000
B2   B   0.191435159915996   0.523974968700690   0.111055138773243   1.0000000
B2   B   0.191446933792479   0.666398260465354   0.111085949245467   1.0000000
B2   B   0.190433045319328   0.809224763543267   0.110997981686774   1.0000000
B2   B   0.333415911779099   0.952104705516200   0.111047553761801   1.0000000
B2   B   0.333518960756704   0.095743375198083   0.111059388535498   1.0000000
B2   B   0.334626985645820   0.240290178002724   0.111083772769315   1.0000000
B2   B   0.338359588410588   0.387806006514881   0.111190026115928   1.0000000
B2   B   0.334696254818435   0.524471096390826   0.111225175902250   1.0000000
B2   B   0.335951118747219   0.666057566576149   0.110958228794702   1.0000000
B2   B   0.333853835739468   0.808785676860113   0.111096608982474   1.0000000
B2   B   0.476310739933942   0.951125412715604   0.111056636838865   1.0000000
B2   B   0.476240843453740   0.095060666031301   0.111013148327800   1.0000000
B2   B   0.476415292804257   0.238993811970912   0.111109398742635   1.0000000
B2   B   0.477003041399418   0.382907235458697   0.110878095181930   1.0000000
B2   B   0.486578904486875   0.548143232845520   0.110091829762724   1.0000000
B2   B   0.481144061457347   0.661618285029720   0.112434220022984   1.0000000
B2   B   0.476686820318748   0.806691425551608   0.110865408794492   1.0000000
B2   B   0.618830018395202   0.951354122529298   0.111034820228880   1.0000000
B2   B   0.618954516780963   0.094619142257305   0.111034729743688   1.0000000
B2   B   0.619118053070963   0.237814754253410   0.111016498872270   1.0000000
B2   B   0.619680916954081   0.380891975453800   0.111149105053164   1.0000000
B2   B   0.620731505137762   0.523997955387572   0.110670991032488   1.0000000
B2   B   0.601390998656694   0.656837536486530   0.110096491316013   1.0000000
B2   B   0.618257836962267   0.808215147864837   0.111099532590203   1.0000000
B2   B   0.760904400605366   0.951138874410327   0.111016363452510   1.0000000
B2   B   0.761754998705610   0.094597360769055   0.111077163343037   1.0000000
B2   B   0.762002968644178   0.237761354574332   0.111092316129173   1.0000000
B2   B   0.762174678796245   0.380832995996203   0.111018603587898   1.0000000
B2   B   0.761825410961418   0.523681877532329   0.111123477615989   1.0000000
B2   B   0.757008309797422   0.664904158647591   0.111023173981415   1.0000000
B2   B   0.756065744264453   0.804862004615200   0.111215553834952   1.0000000
N2   N   0.950939982511334   0.903651938906011   0.111048147736848   1.0000000
N2   N   0.951778068606876   0.046714935475879   0.111016480752591   1.0000000
N2   N   0.952718238619386   0.190316133590800   0.110983826000606   1.0000000
N2   N   0.952745529478829   0.333313256747345   0.111007242702532   1.0000000
N2   N   0.952541357395212   0.476212807445450   0.111018896860794   1.0000000
N2   N   0.951585327954684   0.618925185311252   0.111057578924344   1.0000000
N2   N   0.950919513304296   0.761272423325051   0.111068508599432   1.0000000
N2   N   0.094694960563806   0.904580767762807   0.110980608205554   1.0000000
N2   N   0.095299530725328   0.047800887041209   0.111013318109709   1.0000000
N2   N   0.096534179179661   0.191452525970841   0.111000713515289   1.0000000
N2   N   0.096119272181853   0.333734747292422   0.111024186540869   1.0000000
N2   N   0.095835610178084   0.476391981501313   0.111000265072819   1.0000000
N2   N   0.095642620066213   0.619088267882333   0.111010412868352   1.0000000
N2   N   0.094859174763898   0.761752617077960   0.110995409069245   1.0000000
N2   N   0.238014482038902   0.904724329398310   0.111009422630237   1.0000000
N2   N   0.238267246802485   0.048144633974104   0.111040435050534   1.0000000
N2   N   0.239509191011162   0.192193664349523   0.111026624791135   1.0000000
N2   N   0.241697449458635   0.336753441164192   0.110869941521121   1.0000000
N2   N   0.239112029427270   0.476695971819389   0.110966159482252   1.0000000
N2   N   0.239834336608770   0.619060089021340   0.111171769984191   1.0000000
N2   N   0.238427107763357   0.761684232965579   0.110999968475220   1.0000000
N2   N   0.381038472933062   0.904252499490088   0.111006823545325   1.0000000
N2   N   0.380993485467405   0.047837790443539   0.111062795180896   1.0000000
N2   N   0.381547505702971   0.191870653727311   0.111015375951730   1.0000000
N2   N   0.383730014198064   0.337137770788467   0.111093356625056   1.0000000
N2   N   0.388072411638755   0.483660248909385   0.111649493177969   1.0000000
N2   N   0.384394797492601   0.618270918376354   0.110775627346450   1.0000000
N2   N   0.381686778231540   0.761025440646423   0.111140522865007   1.0000000
N2   N   0.523691234725732   0.902872619006586   0.111116998176523   1.0000000
N2   N   0.523653017838717   0.047013193053812   0.110986793171054   1.0000000
N2   N   0.523793923612004   0.191018242482015   0.110988009968479   1.0000000
N2   N   0.524407882418674   0.335680489703324   0.111195069067782   1.0000000
N2   N   0.524350802193892   0.758205415685301   0.110567940731728   1.0000000
N2   N   0.666117709138883   0.903814785971414   0.110956506487376   1.0000000
N2   N   0.666438242319102   0.046988238664426   0.111000638896851   1.0000000
N2   N   0.666553956542812   0.190170033870370   0.111069369173693   1.0000000
N2   N   0.666661152782964   0.333197306032306   0.110954822939149   1.0000000
N2   N   0.666254690856807   0.475522600809108   0.111311482643039   1.0000000
N2   N   0.659756207802551   0.615614753174040   0.110712492978461   1.0000000
N2   N   0.659612093821976   0.755701300101505   0.111675849933549   1.0000000
N2   N   0.806556797728510   0.901685744302801   0.110902249722462   1.0000000
N2   N   0.809245868180876   0.046869129142725   0.111088365110518   1.0000000
N2   N   0.809573225825532   0.190139613479351   0.111055599795350   1.0000000
N2   N   0.809618834317431   0.333179358064931   0.111078037807012   1.0000000
N2   N   0.809325840517156   0.476037580454608   0.110963066562701   1.0000000
N2   N   0.806834538629853   0.618330918923251   0.111011262291268   1.0000000
N2   N   0.806204044276480   0.759690336121670   0.110966343494269   1.0000000
O2   O   0.526505897424745   0.479981216966844   0.109947831192677   1.0000000


