data_1
_audit_creation_method   'vasp2cif'
_cell_length_a    14.93631414619966
_cell_length_b    14.936314146199727
_cell_length_c    13.341276283792837
_cell_angle_alpha    90.0
_cell_angle_beta    90.0
_cell_angle_gamma    119.99999999999984

_symmetry_space_group_name_H-M    'P 1'
loop_
_atom_site_label
_atom_site_type_symbol
_atom_site_fract_x
_atom_site_fract_y
_atom_site_fract_z
_atom_site_occupancy
C2   C   0.715126192467804   0.440983739596874   0.375000000000000   1.0000000
C2   C   0.605462474948795   0.384003353680644   0.375000000000000   1.0000000
C2   C   0.440504117191215   0.385644602855519   0.375000000000000   1.0000000
C2   C   0.552304611730429   0.439208587286027   0.375000000000000   1.0000000
N2   N   0.111127505037499   0.055543315921402   0.125223336076796   1.0000000
N2   N   0.611138803589517   0.555523882000475   0.125805292490646   1.0000000
N2   N   0.444433395558868   0.055535465620894   0.125303303518353   1.0000000
N2   N   0.944404809961465   0.555533296616460   0.125485095208688   1.0000000
N2   N   0.777779005404059   0.055553161678055   0.125175891090499   1.0000000
N2   N   0.111092167703616   0.722196934756695   0.624782743517009   1.0000000
N2   N   0.444442449349779   0.722192130160341   0.624750250369694   1.0000000
N2   N   0.277823157612726   0.222233073164715   0.624433809606340   1.0000000
N2   N   0.777789434696689   0.722219640113189   0.624742462821488   1.0000000
N2   N   0.611105943609178   0.222231211502455   0.624476018411497   1.0000000
N2   N   0.944462208978407   0.222248997759697   0.624793476554074   1.0000000
N2   N   0.277775956827814   0.722212215327378   0.125191123575251   1.0000000
N2   N   0.111153779650755   0.222248101653115   0.125270382607659   1.0000000
N2   N   0.444441180115015   0.222216294955108   0.125640290683263   1.0000000
N2   N   0.611112907312410   0.722188076827618   0.125314442199002   1.0000000
N2   N   0.944436939569422   0.722200762590469   0.125280517143154   1.0000000
N2   N   0.777775083105443   0.222228105787185   0.125282270081840   1.0000000
N2   N   0.111111405091195   0.888864298583931   0.624816903148421   1.0000000
N2   N   0.444432109677726   0.888866933942354   0.624815382576086   1.0000000
N2   N   0.277817593665081   0.388904962777085   0.624470889378658   1.0000000
N2   N   0.611093951004173   0.388843288264168   0.624928951549738   1.0000000
N2   N   0.777781797980361   0.888875072171454   0.624833148232021   1.0000000
N2   N   0.944454735543234   0.388906267959680   0.624737239039973   1.0000000
N2   N   0.111132593004667   0.388914697623473   0.125221078382514   1.0000000
N2   N   0.277768077555781   0.888857811445745   0.125195663027836   1.0000000
N2   N   0.611095802080431   0.888864969930765   0.125183887564646   1.0000000
N2   N   0.444466942094144   0.388871885407963   0.125746154494410   1.0000000
N2   N   0.944451129284339   0.888873321470215   0.125176271375772   1.0000000
N2   N   0.777770873269912   0.388873462596466   0.125699258678116   1.0000000
N2   N   0.277795973456087   0.555561292399769   0.624668619119125   1.0000000
N2   N   0.111127505037499   0.055543315921402   0.624776663923204   1.0000000
N2   N   0.611138803589517   0.555523882000475   0.624194707509354   1.0000000
N2   N   0.444433395558868   0.055535465620894   0.624696696481648   1.0000000
N2   N   0.944404809961465   0.555533296616460   0.624514904791313   1.0000000
N2   N   0.111101923146164   0.555562652805763   0.125257537224431   1.0000000
N2   N   0.777779005404059   0.055553161678055   0.624824108909501   1.0000000
N2   N   0.277781011697336   0.055537817845998   0.125304220946216   1.0000000
N2   N   0.444471507938769   0.555510790662150   0.125689738299402   1.0000000
N2   N   0.777761233452588   0.555543617644023   0.125833427676674   1.0000000
N2   N   0.611098577031271   0.055553341902902   0.125260726315809   1.0000000
N2   N   0.444471507938769   0.555510790662150   0.624310261700598   1.0000000
N2   N   0.944463879668546   0.055557548719630   0.125175911164815   1.0000000
N2   N   0.277775956827814   0.722212215327378   0.624808876424749   1.0000000
N2   N   0.111153779650755   0.222248101653115   0.624729617392342   1.0000000
N2   N   0.444441180115015   0.222216294955108   0.624359709316736   1.0000000
N2   N   0.611112907312410   0.722188076827618   0.624685557800998   1.0000000
N2   N   0.944436939569422   0.722200762590469   0.624719482856846   1.0000000
N2   N   0.777775083105443   0.222228105787185   0.624717729918160   1.0000000
N2   N   0.111092167703616   0.722196934756695   0.125217256482991   1.0000000
N2   N   0.444442449349779   0.722192130160341   0.125249749630307   1.0000000
N2   N   0.277823157612726   0.222233073164715   0.125566190393660   1.0000000
N2   N   0.777789434696689   0.722219640113189   0.125257537178511   1.0000000
N2   N   0.611105943609178   0.222231211502455   0.125523981588503   1.0000000
N2   N   0.944462208978407   0.222248997759697   0.125206523445926   1.0000000
N2   N   0.111132593004667   0.388914697623473   0.624778921617486   1.0000000
N2   N   0.277768077555781   0.888857811445745   0.624804336972164   1.0000000
N2   N   0.611095802080431   0.888864969930765   0.624816112435354   1.0000000
N2   N   0.444466942094144   0.388871885407963   0.624253845505590   1.0000000
N2   N   0.944451129284339   0.888873321470215   0.624823728624228   1.0000000
N2   N   0.111111405091195   0.888864298583931   0.125183096851579   1.0000000
N2   N   0.777770873269912   0.388873462596466   0.624300741321884   1.0000000
N2   N   0.444432109677726   0.888866933942354   0.125184617423914   1.0000000
N2   N   0.277817593665081   0.388904962777085   0.125529110621342   1.0000000
N2   N   0.277795973456087   0.555561292399769   0.125331380880875   1.0000000
N2   N   0.611093951004173   0.388843288264168   0.125071048450262   1.0000000
N2   N   0.777781797980361   0.888875072171454   0.125166851767979   1.0000000
N2   N   0.944454735543234   0.388906267959680   0.125262760960027   1.0000000
N2   N   0.111101923146164   0.555562652805763   0.624742462775570   1.0000000
N2   N   0.277781011697336   0.055537817845998   0.624695779053784   1.0000000
N2   N   0.777761233452588   0.555543617644023   0.624166572323326   1.0000000
N2   N   0.611098577031271   0.055553341902902   0.624739273684191   1.0000000
N2   N   0.944463879668546   0.055557548719630   0.624824088835185   1.0000000
N2   N   0.055728066710584   0.111266404828271   0.375000000000000   1.0000000
N2   N   0.556537634010606   0.611949196110486   0.375000000000000   1.0000000
N2   N   0.389311110241970   0.112929248463826   0.375000000000000   1.0000000
N2   N   0.888069321545043   0.611561534547268   0.375000000000000   1.0000000
N2   N   0.722096034711467   0.110441856073037   0.375000000000000   1.0000000
N2   N   0.055552357932107   0.777779643710677   0.875000000000000   1.0000000
N2   N   0.388906936088124   0.777787725520585   0.875000000000000   1.0000000
N2   N   0.222230497770120   0.277786088703831   0.875000000000000   1.0000000
N2   N   0.722232543232959   0.777782708872330   0.875000000000000   1.0000000
N2   N   0.555568161153685   0.277792840159797   0.875000000000000   1.0000000
N2   N   0.888898320092764   0.277786258001948   0.875000000000000   1.0000000
N2   N   0.222246162253498   0.777657070942871   0.375000000000000   1.0000000
N2   N   0.055723893874000   0.277753436055816   0.375000000000000   1.0000000
N2   N   0.389397237536204   0.281498575815380   0.375000000000000   1.0000000
N2   N   0.555563362985685   0.778061958331008   0.375000000000000   1.0000000
N2   N   0.889774282468002   0.779189386748605   0.375000000000000   1.0000000
N2   N   0.722354757831220   0.275934603262037   0.375000000000000   1.0000000
N2   N   0.055564177959607   0.944453933583373   0.875000000000000   1.0000000
N2   N   0.388908105964767   0.944463291233554   0.875000000000000   1.0000000
N2   N   0.222239195436948   0.444454431903629   0.875000000000000   1.0000000
N2   N   0.555565640340832   0.444454346484855   0.875000000000000   1.0000000
N2   N   0.722232230383735   0.944453411125928   0.875000000000000   1.0000000
N2   N   0.888886346037712   0.444450212846834   0.875000000000000   1.0000000
N2   N   0.056168219777738   0.444197501710637   0.375000000000000   1.0000000
N2   N   0.222785127658852   0.945207160775782   0.375000000000000   1.0000000
N2   N   0.555408992012219   0.944709774801866   0.375000000000000   1.0000000
N2   N   0.390723595413274   0.440303802893804   0.375000000000000   1.0000000
N2   N   0.889259519132162   0.945074379675401   0.375000000000000   1.0000000
N2   N   0.222228538760274   0.611113035599851   0.875000000000000   1.0000000
N2   N   0.055562221825867   0.111116066360151   0.875000000000000   1.0000000
N2   N   0.555571957762464   0.611111421989663   0.875000000000000   1.0000000
N2   N   0.388909387742120   0.111129987917758   0.875000000000000   1.0000000
N2   N   0.888884094286491   0.611112391659727   0.875000000000000   1.0000000
N2   N   0.054834991659409   0.610616211732141   0.375000000000000   1.0000000
N2   N   0.722231708625570   0.111123820085516   0.875000000000000   1.0000000
N2   N   0.222980309433749   0.112119154253811   0.375000000000000   1.0000000
N2   N   0.389659213501425   0.609270936810579   0.375000000000000   1.0000000
N2   N   0.723320250609988   0.615208175869913   0.375000000000000   1.0000000
N2   N   0.555455764404285   0.111797363948521   0.375000000000000   1.0000000
N2   N   0.388912482606149   0.611114642347838   0.875000000000000   1.0000000
N2   N   0.889040354898749   0.111204593676095   0.375000000000000   1.0000000
N2   N   0.222228136672978   0.777782648798140   0.875000000000000   1.0000000
N2   N   0.055562669153287   0.277785082464485   0.875000000000000   1.0000000
N2   N   0.388900559403206   0.277792793270331   0.875000000000000   1.0000000
N2   N   0.555572744117431   0.777780622733564   0.875000000000000   1.0000000
N2   N   0.888892605034935   0.777784592125538   0.875000000000000   1.0000000
N2   N   0.722233701600989   0.277788198026320   0.875000000000000   1.0000000
N2   N   0.055882457422011   0.778251514023639   0.375000000000000   1.0000000
N2   N   0.389012764575291   0.777272637241067   0.375000000000000   1.0000000
N2   N   0.221761389158686   0.277431864142458   0.375000000000000   1.0000000
N2   N   0.722576315140529   0.779464856559593   0.375000000000000   1.0000000
N2   N   0.555263413142596   0.278623959966464   0.375000000000000   1.0000000
N2   N   0.889086985034034   0.277486736390081   0.375000000000000   1.0000000
N2   N   0.055559675490757   0.444452481178357   0.875000000000000   1.0000000
N2   N   0.222236228618031   0.944458861642228   0.875000000000000   1.0000000
N2   N   0.555570910443600   0.944460390783514   0.875000000000000   1.0000000
N2   N   0.388912258229820   0.444454560439459   0.875000000000000   1.0000000
N2   N   0.888895995805764   0.944447647734653   0.875000000000000   1.0000000
N2   N   0.056275197990282   0.945256232501619   0.375000000000000   1.0000000
N2   N   0.722224385506433   0.444451322197293   0.875000000000000   1.0000000
N2   N   0.389043717244208   0.944982471643328   0.375000000000000   1.0000000
N2   N   0.223436449735515   0.443923095074648   0.375000000000000   1.0000000
N2   N   0.222560315191042   0.610597968635687   0.375000000000000   1.0000000
N2   N   0.722183590319722   0.944761506780257   0.375000000000000   1.0000000
N2   N   0.888664149820427   0.443502193521870   0.375000000000000   1.0000000
N2   N   0.055547497823030   0.611110327646058   0.875000000000000   1.0000000
N2   N   0.222235513277055   0.111125640833476   0.875000000000000   1.0000000
N2   N   0.722221948496884   0.611109149609534   0.875000000000000   1.0000000
N2   N   0.555572555834921   0.111131382429056   0.875000000000000   1.0000000
N2   N   0.888898709650560   0.111115541971167   0.875000000000000   1.0000000
B2   B   0.111077262785064   0.055813661830267   0.375000000000000   1.0000000
B2   B   0.613620371497591   0.559838693444821   0.375000000000000   1.0000000
B2   B   0.444272284320640   0.055670257461162   0.375000000000000   1.0000000
B2   B   0.944142501019465   0.555295098199344   0.375000000000000   1.0000000
B2   B   0.777953678589920   0.055332892781242   0.375000000000000   1.0000000
B2   B   0.111113207792152   0.722240765966858   0.875000000000000   1.0000000
B2   B   0.444483095594958   0.722269154293756   0.875000000000000   1.0000000
B2   B   0.277730136127200   0.222177849332108   0.875000000000000   1.0000000
B2   B   0.777815409831126   0.722281907861007   0.875000000000000   1.0000000
B2   B   0.611134925823818   0.222197247009575   0.875000000000000   1.0000000
B2   B   0.944450482792103   0.222215339023309   0.875000000000000   1.0000000
B2   B   0.277846602566659   0.721986490526474   0.375000000000000   1.0000000
B2   B   0.109707343564673   0.221493818984685   0.375000000000000   1.0000000
B2   B   0.444179760832074   0.222343093930817   0.375000000000000   1.0000000
B2   B   0.612089075627659   0.724395704848325   0.375000000000000   1.0000000
B2   B   0.945218888017014   0.723738291700071   0.375000000000000   1.0000000
B2   B   0.778485073228312   0.220407162318243   0.375000000000000   1.0000000
B2   B   0.111102573846113   0.888879231205391   0.875000000000000   1.0000000
B2   B   0.444455397537735   0.888906031269040   0.875000000000000   1.0000000
B2   B   0.277755813851957   0.388892462206093   0.875000000000000   1.0000000
B2   B   0.611117376415774   0.388879202749823   0.875000000000000   1.0000000
B2   B   0.777814358477935   0.888928003098679   0.875000000000000   1.0000000
B2   B   0.944452518618872   0.388877617003896   0.875000000000000   1.0000000
B2   B   0.111476161912324   0.388554364807094   0.375000000000000   1.0000000
B2   B   0.277848343567782   0.888960388852012   0.375000000000000   1.0000000
B2   B   0.611238753657157   0.889432853864901   0.375000000000000   1.0000000
B2   B   0.945295740398543   0.890268105579660   0.375000000000000   1.0000000
B2   B   0.778861135321637   0.385109152770688   0.375000000000000   1.0000000
B2   B   0.277775734596352   0.555594080803423   0.875000000000000   1.0000000
B2   B   0.111096439628312   0.055543114533990   0.875000000000000   1.0000000
B2   B   0.611150183146367   0.555612495425297   0.875000000000000   1.0000000
B2   B   0.444449248968570   0.055517088757874   0.875000000000000   1.0000000
B2   B   0.944469115838229   0.555572413317565   0.875000000000000   1.0000000
B2   B   0.111251333774747   0.555245625145303   0.375000000000000   1.0000000
B2   B   0.777783428635862   0.055559878393530   0.875000000000000   1.0000000
B2   B   0.277660620289859   0.055680278801256   0.375000000000000   1.0000000
B2   B   0.446316140111554   0.555808937740358   0.375000000000000   1.0000000
B2   B   0.778368304632994   0.561001816428488   0.375000000000000   1.0000000
B2   B   0.611195063282002   0.055361074592758   0.375000000000000   1.0000000
B2   B   0.444462626536833   0.555599168311702   0.875000000000000   1.0000000
B2   B   0.944414471312552   0.055677543794777   0.375000000000000   1.0000000
B2   B   0.277784101130423   0.722229176997725   0.875000000000000   1.0000000
B2   B   0.111061229652277   0.222206926554495   0.875000000000000   1.0000000
B2   B   0.444442070873235   0.222191640549169   0.875000000000000   1.0000000
B2   B   0.611140710390475   0.722286820494530   0.875000000000000   1.0000000
B2   B   0.944483192381457   0.722268187640437   0.875000000000000   1.0000000
B2   B   0.777799282446957   0.222189190358820   0.875000000000000   1.0000000
B2   B   0.111143134683418   0.722354821235677   0.375000000000000   1.0000000
B2   B   0.444758116832308   0.721948125093718   0.375000000000000   1.0000000
B2   B   0.275134530248681   0.221492278207589   0.375000000000000   1.0000000
B2   B   0.779315535870876   0.726028571237460   0.375000000000000   1.0000000
B2   B   0.611909030167624   0.221430664195590   0.375000000000000   1.0000000
B2   B   0.944599242952805   0.221858556465245   0.375000000000000   1.0000000
B2   B   0.111083293306375   0.388867464943500   0.875000000000000   1.0000000
B2   B   0.277799664078542   0.888894197939921   0.875000000000000   1.0000000
B2   B   0.611131659652397   0.888901476902417   0.875000000000000   1.0000000
B2   B   0.444433148932692   0.388898072411050   0.875000000000000   1.0000000
B2   B   0.944441098954829   0.888914247190105   0.875000000000000   1.0000000
B2   B   0.111483616232696   0.889418928718992   0.375000000000000   1.0000000
B2   B   0.777829831319011   0.388877905667615   0.875000000000000   1.0000000
B2   B   0.444399890684858   0.888811025827215   0.375000000000000   1.0000000
B2   B   0.276445362485559   0.387047395427338   0.375000000000000   1.0000000
B2   B   0.277981433576855   0.555104610557108   0.375000000000000   1.0000000
B2   B   0.778337328411485   0.890325702924498   0.375000000000000   1.0000000
B2   B   0.945257664207421   0.388400640663511   0.375000000000000   1.0000000
B2   B   0.111131560148066   0.555581129345636   0.875000000000000   1.0000000
B2   B   0.277755983557217   0.055534998591322   0.875000000000000   1.0000000
B2   B   0.777825199798212   0.555616836062074   0.875000000000000   1.0000000
B2   B   0.611148823033669   0.055554828664817   0.875000000000000   1.0000000
B2   B   0.944421996554355   0.055531481145793   0.875000000000000   1.0000000
B2   B   0.055475770221953   0.111020734889148   0.124776751167194   1.0000000
B2   B   0.555624724806369   0.611325729787386   0.124874414751567   1.0000000
B2   B   0.388763854284789   0.110847010737251   0.124769641162642   1.0000000
B2   B   0.889099995013505   0.611274253684468   0.124957346033944   1.0000000
B2   B   0.722228093703405   0.111018409802274   0.124818260045054   1.0000000
B2   B   0.055622590086012   0.777797771406843   0.625154262783244   1.0000000
B2   B   0.388847879586539   0.777793232908276   0.625181487450825   1.0000000
B2   B   0.222066312528964   0.277713463928033   0.625302853605802   1.0000000
B2   B   0.722304845259608   0.777909520773484   0.625201196711959   1.0000000
B2   B   0.555548894065409   0.277637198235123   0.625607931318542   1.0000000
B2   B   0.888947768204789   0.277764225755625   0.625206488148654   1.0000000
B2   B   0.222224348106025   0.777760079104584   0.124836845926588   1.0000000
B2   B   0.055512695951399   0.277790056411502   0.124797585969938   1.0000000
B2   B   0.388765331338888   0.277610686293655   0.124439260743491   1.0000000
B2   B   0.555551718825555   0.777858819533046   0.124820443592368   1.0000000
B2   B   0.888987676877798   0.777879960005637   0.124805229473705   1.0000000
B2   B   0.722294165227099   0.277647496336322   0.124782716312408   1.0000000
B2   B   0.055532171921383   0.944373887841144   0.625186869872474   1.0000000
B2   B   0.388816589028067   0.944290176839631   0.625178990862583   1.0000000
B2   B   0.222119093212794   0.444498399733836   0.625195590788827   1.0000000
B2   B   0.555636045515507   0.444452649795685   0.625533259157194   1.0000000
B2   B   0.722224146216316   0.944442570039163   0.625172964977016   1.0000000
B2   B   0.889059635758607   0.444469674328135   0.625059278180030   1.0000000
B2   B   0.055587014366336   0.444487204931261   0.124831692330758   1.0000000
B2   B   0.222150501192298   0.944285692455588   0.124808986751411   1.0000000
B2   B   0.555511518545398   0.944360934265889   0.124826552254223   1.0000000
B2   B   0.388789064089747   0.444475159806938   0.124593564770433   1.0000000
B2   B   0.888899983750842   0.944447860855646   0.124832131814726   1.0000000
B2   B   0.722303940823515   0.444442738872781   0.124579064362588   1.0000000
B2   B   0.222213653329835   0.611203234809691   0.625144680880439   1.0000000
B2   B   0.055475770221953   0.111020734889148   0.625223248832805   1.0000000
B2   B   0.555624724806369   0.611325729787386   0.625125585248433   1.0000000
B2   B   0.388763854284789   0.110847010737251   0.625230358837358   1.0000000
B2   B   0.889099995013505   0.611274253684468   0.625042653966056   1.0000000
B2   B   0.055682364141971   0.611202326184892   0.124877195485155   1.0000000
B2   B   0.722228093703405   0.111018409802274   0.625181739954946   1.0000000
B2   B   0.222079104706565   0.110896472442677   0.124769053181984   1.0000000
B2   B   0.388825902226148   0.611253427622488   0.124837941903815   1.0000000
B2   B   0.722419245766066   0.611371163098789   0.124960418732860   1.0000000
B2   B   0.555491605196393   0.110893905247871   0.124800846663711   1.0000000
B2   B   0.388825902226148   0.611253427622488   0.625162058096184   1.0000000
B2   B   0.888874881459664   0.111070465547968   0.124818788161997   1.0000000
B2   B   0.222224348106025   0.777760079104584   0.625163154073412   1.0000000
B2   B   0.055512695951399   0.277790056411502   0.625202414030063   1.0000000
B2   B   0.388765331338888   0.277610686293655   0.625560739256509   1.0000000
B2   B   0.555551718825555   0.777858819533046   0.625179556407632   1.0000000
B2   B   0.888987676877798   0.777879960005637   0.625194770526294   1.0000000
B2   B   0.722294165227099   0.277647496336322   0.625217283687592   1.0000000
B2   B   0.055622590086012   0.777797771406843   0.124845737216756   1.0000000
B2   B   0.388847879586539   0.777793232908276   0.124818512549175   1.0000000
B2   B   0.222066312528964   0.277713463928033   0.124697146394198   1.0000000
B2   B   0.722304845259608   0.777909520773484   0.124798803288041   1.0000000
B2   B   0.555548894065409   0.277637198235123   0.124392068681458   1.0000000
B2   B   0.888947768204789   0.277764225755625   0.124793511851346   1.0000000
B2   B   0.055587014366336   0.444487204931261   0.625168307669242   1.0000000
B2   B   0.222150501192298   0.944285692455588   0.625191013248589   1.0000000
B2   B   0.555511518545398   0.944360934265889   0.625173447745776   1.0000000
B2   B   0.388789064089747   0.444475159806938   0.625406435229567   1.0000000
B2   B   0.888899983750842   0.944447860855646   0.625167868185274   1.0000000
B2   B   0.055532171921383   0.944373887841144   0.124813130127526   1.0000000
B2   B   0.722303940823515   0.444442738872781   0.625420935637413   1.0000000
B2   B   0.388816589028067   0.944290176839631   0.124821009137418   1.0000000
B2   B   0.222119093212794   0.444498399733836   0.124804409211173   1.0000000
B2   B   0.222213653329835   0.611203234809690   0.124855319119562   1.0000000
B2   B   0.555636045515507   0.444452649795685   0.124466740842806   1.0000000
B2   B   0.722224146216316   0.944442570039163   0.124827035022984   1.0000000
B2   B   0.889059635758607   0.444469674328135   0.124940721819970   1.0000000
B2   B   0.055682364141971   0.611202326184892   0.625122804514846   1.0000000
B2   B   0.222079104706565   0.110896472442677   0.625230946818016   1.0000000
B2   B   0.722419245766066   0.611371163098789   0.625039581267140   1.0000000
B2   B   0.555491605196393   0.110893905247871   0.625199153336289   1.0000000
B2   B   0.888874881459664   0.111070465547968   0.625181211838003   1.0000000


