data_1
_audit_creation_method   'vasp2cif'
_cell_length_a    14.93631414619966
_cell_length_b    14.936314146199727
_cell_length_c    13.341276283792837
_cell_angle_alpha    90.0
_cell_angle_beta    90.0
_cell_angle_gamma    119.99999999999984

_symmetry_space_group_name_H-M    'P 1'
loop_
_atom_site_label
_atom_site_type_symbol
_atom_site_fract_x
_atom_site_fract_y
_atom_site_fract_z
_atom_site_occupancy
In2   In   0.444444444444443   0.388888888888886   0.375000000000000   1.0000000
N2   N   0.111097063013594   0.055544393014391   0.125489700046297   1.0000000
N2   N   0.611125813468837   0.555575326730708   0.125649450634411   1.0000000
N2   N   0.444447330000797   0.055544393014391   0.125489700046297   1.0000000
N2   N   0.944445462728667   0.555553322001324   0.125676697286612   1.0000000
N2   N   0.777777777777779   0.055555555555557   0.125611491136997   1.0000000
N2   N   0.111111111111114   0.722222222222221   0.624357820594593   1.0000000
N2   N   0.444447330000797   0.722236270319742   0.624510299953704   1.0000000
N2   N   0.277758006602628   0.222207519864499   0.624350549365590   1.0000000
N2   N   0.777788940318945   0.722236270319742   0.624510299953704   1.0000000
N2   N   0.611112695732821   0.222220637600515   0.624543824029016   1.0000000
N2   N   0.944442703648827   0.222221317501733   0.624383251504321   1.0000000
N2   N   0.277780011332010   0.722225474060676   0.125676697286612   1.0000000
N2   N   0.111107941867701   0.222220637600515   0.125456175970983   1.0000000
N2   N   0.444449513261871   0.222207519864499   0.125649450634411   1.0000000
N2   N   0.611112695732821   0.722225391465636   0.125456175970983   1.0000000
N2   N   0.944445462728667   0.722225474060676   0.125676697286612   1.0000000
N2   N   0.777778613852908   0.222221317501733   0.125616748495680   1.0000000
N2   N   0.111107859272658   0.888887870604661   0.624323302713388   1.0000000
N2   N   0.444448841230644   0.888891087281986   0.624384018501616   1.0000000
N2   N   0.277758006602628   0.388883820071457   0.624350549365590   1.0000000
N2   N   0.611125813468837   0.388883820071457   0.624350549365590   1.0000000
N2   N   0.777778613852908   0.888890629684502   0.624383251504321   1.0000000
N2   N   0.944442246051343   0.388884492102685   0.624384018501616   1.0000000
N2   N   0.111097063013594   0.388886003332532   0.125489700046297   1.0000000
N2   N   0.277780011332010   0.888887870604661   0.125676697286612   1.0000000
N2   N   0.611112015831603   0.888890629684502   0.125616748495680   1.0000000
N2   N   0.444444444444443   0.388888888888886   0.130952481402976   1.0000000
N2   N   0.944442246051343   0.888891087281986   0.125615981498384   1.0000000
N2   N   0.777788940318945   0.388886003332532   0.125489700046297   1.0000000
N2   N   0.277773580696815   0.555559752636522   0.624390034873197   1.0000000
N2   N   0.111097063013594   0.055544393014391   0.624510299953704   1.0000000
N2   N   0.611125813468837   0.555575326730708   0.624350549365590   1.0000000
N2   N   0.444447330000797   0.055544393014391   0.624510299953704   1.0000000
N2   N   0.944445462728667   0.555553322001324   0.624323302713388   1.0000000
N2   N   0.111107859272658   0.555553322001324   0.125676697286612   1.0000000
N2   N   0.777777777777779   0.055555555555557   0.624388508863002   1.0000000
N2   N   0.277773580696815   0.055547161393629   0.125609965126803   1.0000000
N2   N   0.444449513261871   0.555575326730708   0.125649450634411   1.0000000
N2   N   0.777786171939705   0.555559752636522   0.125609965126803   1.0000000
N2   N   0.611112015831603   0.055554719480429   0.125616748495680   1.0000000
N2   N   0.444449513261871   0.555575326730708   0.624350549365590   1.0000000
N2   N   0.944442703648827   0.055554719480429   0.125616748495680   1.0000000
N2   N   0.277780011332010   0.722225474060676   0.624323302713388   1.0000000
N2   N   0.111107941867701   0.222220637600515   0.624543824029016   1.0000000
N2   N   0.444449513261871   0.222207519864499   0.624350549365590   1.0000000
N2   N   0.611112695732821   0.722225391465636   0.624543824029016   1.0000000
N2   N   0.944445462728667   0.722225474060676   0.624323302713388   1.0000000
N2   N   0.777778613852908   0.222221317501733   0.624383251504321   1.0000000
N2   N   0.111111111111114   0.722222222222221   0.125642179405407   1.0000000
N2   N   0.444447330000797   0.722236270319742   0.125489700046297   1.0000000
N2   N   0.277758006602628   0.222207519864499   0.125649450634411   1.0000000
N2   N   0.777788940318945   0.722236270319742   0.125489700046297   1.0000000
N2   N   0.611112695732821   0.222220637600515   0.125456175970983   1.0000000
N2   N   0.944442703648827   0.222221317501733   0.125616748495680   1.0000000
N2   N   0.111097063013594   0.388886003332532   0.624510299953704   1.0000000
N2   N   0.277780011332010   0.888887870604661   0.624323302713388   1.0000000
N2   N   0.611112015831603   0.888890629684502   0.624383251504321   1.0000000
N2   N   0.444444444444443   0.388888888888886   0.619047518597023   1.0000000
N2   N   0.944442246051343   0.888891087281986   0.624384018501616   1.0000000
N2   N   0.111107859272658   0.888887870604661   0.125676697286612   1.0000000
N2   N   0.777788940318945   0.388886003332532   0.624510299953704   1.0000000
N2   N   0.444448841230644   0.888891087281986   0.125615981498384   1.0000000
N2   N   0.277758006602628   0.388883820071457   0.125649450634411   1.0000000
N2   N   0.277773580696815   0.555559752636522   0.125609965126803   1.0000000
N2   N   0.611125813468837   0.388883820071457   0.125649450634411   1.0000000
N2   N   0.777778613852908   0.888890629684502   0.125616748495680   1.0000000
N2   N   0.944442246051343   0.388884492102685   0.125615981498384   1.0000000
N2   N   0.111107859272658   0.555553322001324   0.624323302713388   1.0000000
N2   N   0.277773580696815   0.055547161393629   0.624390034873197   1.0000000
N2   N   0.777786171939705   0.555559752636522   0.624390034873197   1.0000000
N2   N   0.611112015831603   0.055554719480429   0.624383251504321   1.0000000
N2   N   0.944442703648827   0.055554719480429   0.624383251504321   1.0000000
N2   N   0.053954867202382   0.110090776332001   0.375000000000000   1.0000000
N2   N   0.556277601739368   0.612555203478738   0.375000000000000   1.0000000
N2   N   0.387242478567544   0.101480193637681   0.375000000000000   1.0000000
N2   N   0.892185502880438   0.612759418106889   0.375000000000000   1.0000000
N2   N   0.722518256455885   0.110815076877450   0.375000000000000   1.0000000
N2   N   0.055556205311041   0.777777128022295   0.875000000000000   1.0000000
N2   N   0.388884727108907   0.777776606586807   0.875000000000000   1.0000000
N2   N   0.222220252363750   0.277776792848543   0.875000000000000   1.0000000
N2   N   0.722226253979352   0.777780931998781   0.875000000000000   1.0000000
N2   N   0.555556540484793   0.277776792848543   0.875000000000000   1.0000000
N2   N   0.888892099653635   0.277784199307277   0.875000000000000   1.0000000
N2   N   0.221591569672286   0.777462451502812   0.375000000000000   1.0000000
N2   N   0.053954867202382   0.277197424203716   0.375000000000000   1.0000000
N2   N   0.372566998595895   0.245133997191797   0.375000000000000   1.0000000
N2   N   0.556135909129619   0.779378466130954   0.375000000000000   1.0000000
N2   N   0.891594532306262   0.779979846366057   0.375000000000000   1.0000000
N2   N   0.723242557001335   0.277197424203716   0.375000000000000   1.0000000
N2   N   0.055556726746530   0.944441453855436   0.875000000000000   1.0000000
N2   N   0.388884727108907   0.944441453855436   0.875000000000000   1.0000000
N2   N   0.222223759739464   0.444445039185789   0.875000000000000   1.0000000
N2   N   0.555537159902183   0.444435246617756   0.875000000000000   1.0000000
N2   N   0.722222080156310   0.944444160312621   0.875000000000000   1.0000000
N2   N   0.888891879477893   0.444448606224422   0.875000000000000   1.0000000
N2   N   0.053353486967279   0.444948019273541   0.375000000000000   1.0000000
N2   N   0.220573915226446   0.941147830452891   0.375000000000000   1.0000000
N2   N   0.556020307761007   0.944676820547167   0.375000000000000   1.0000000
N2   N   0.372566998595895   0.460766334737434   0.375000000000000   1.0000000
N2   N   0.888656512786162   0.944676820547167   0.375000000000000   1.0000000
N2   N   0.731853139695655   0.446090854765785   0.375000000000000   1.0000000
N2   N   0.222220883671538   0.611112449661798   0.875000000000000   1.0000000
N2   N   0.055552401334555   0.111107079353985   0.875000000000000   1.0000000
N2   N   0.555556540484793   0.611113080969586   0.875000000000000   1.0000000
N2   N   0.388888294147539   0.111112053887010   0.875000000000000   1.0000000
N2   N   0.888891565990251   0.611112449661798   0.875000000000000   1.0000000
N2   N   0.055870881830525   0.611741763661049   0.375000000000000   1.0000000
N2   N   0.722222080156310   0.111111253177025   0.875000000000000   1.0000000
N2   N   0.214237715070130   0.101480193637681   0.375000000000000   1.0000000
N2   N   0.387242478567544   0.619095618263206   0.375000000000000   1.0000000
N2   N   0.731853139695656   0.619095618263206   0.375000000000000   1.0000000
N2   N   0.556135909129619   0.110090776332001   0.375000000000000   1.0000000
N2   N   0.388888294147539   0.611109573593873   0.875000000000000   1.0000000
N2   N   0.888296820421555   0.110815076877450   0.375000000000000   1.0000000
N2   N   0.222220922711254   0.777777128022295   0.875000000000000   1.0000000
N2   N   0.055552401334555   0.277778655313906   0.875000000000000   1.0000000
N2   N   0.388898086715573   0.277796173431152   0.875000000000000   1.0000000
N2   N   0.555554678019430   0.777780931998781   0.875000000000000   1.0000000
N2   N   0.888891879477893   0.777776606586807   0.875000000000000   1.0000000
N2   N   0.722226253979352   0.277778655313906   0.875000000000000   1.0000000
N2   N   0.055870881830525   0.777462451502812   0.375000000000000   1.0000000
N2   N   0.388385314059788   0.779979846366057   0.375000000000000   1.0000000
N2   N   0.220778129854598   0.277055731593967   0.375000000000000   1.0000000
N2   N   0.723242557001335   0.779378466130954   0.375000000000000   1.0000000
N2   N   0.556277601739368   0.277055731593967   0.375000000000000   1.0000000
N2   N   0.888656512786162   0.277313025572329   0.375000000000000   1.0000000
N2   N   0.055556726746530   0.444448606224422   0.875000000000000   1.0000000
N2   N   0.222220883671538   0.944441767343078   0.875000000000000   1.0000000
N2   N   0.555549134026060   0.944441233679694   0.875000000000000   1.0000000
N2   N   0.388898086715573   0.444435246617756   0.875000000000000   1.0000000
N2   N   0.888892099653635   0.944441233679694   0.875000000000000   1.0000000
N2   N   0.053353486967279   0.941738801027067   0.375000000000000   1.0000000
N2   N   0.722221279446325   0.444445039185789   0.875000000000000   1.0000000
N2   N   0.388385314059788   0.941738801027067   0.375000000000000   1.0000000
N2   N   0.214237715070130   0.446090854765785   0.375000000000000   1.0000000
N2   N   0.220573915226446   0.612759418106889   0.375000000000000   1.0000000
N2   N   0.588199336141539   0.460766334737434   0.375000000000000   1.0000000
N2   N   0.722518256455885   0.945036512911774   0.375000000000000   1.0000000
N2   N   0.891594532306262   0.444948019273541   0.375000000000000   1.0000000
N2   N   0.055556205311041   0.611112410622082   0.875000000000000   1.0000000
N2   N   0.222223759739464   0.111112053887010   0.875000000000000   1.0000000
N2   N   0.722221279446325   0.611109573593873   0.875000000000000   1.0000000
N2   N   0.555554678019430   0.111107079353985   0.875000000000000   1.0000000
N2   N   0.888889173020707   0.111111253177025   0.875000000000000   1.0000000
B2   B   0.105946982182998   0.050849008624355   0.375000000000000   1.0000000
B2   B   0.622969594285700   0.565388706717086   0.375000000000000   1.0000000
B2   B   0.444902026441356   0.050849008624355   0.375000000000000   1.0000000
B2   B   0.945877920337354   0.555961519674803   0.375000000000000   1.0000000
B2   B   0.777777777777779   0.055555555555557   0.375000000000000   1.0000000
B2   B   0.111111111111114   0.722222222222221   0.875000000000000   1.0000000
B2   B   0.444444710202761   0.722220289323738   0.875000000000000   1.0000000
B2   B   0.277775662823229   0.222222555161166   0.875000000000000   1.0000000
B2   B   0.777775579120978   0.722220289323738   0.875000000000000   1.0000000
B2   B   0.611115428083817   0.222217905249519   0.875000000000000   1.0000000
B2   B   0.944448310500251   0.222224727781710   0.875000000000000   1.0000000
B2   B   0.277371813658533   0.723249733995887   0.375000000000000   1.0000000
B2   B   0.109651430273935   0.221492381803632   0.375000000000000   1.0000000
B2   B   0.442419112431386   0.210363739047636   0.375000000000000   1.0000000
B2   B   0.611840951529703   0.723681903059401   0.375000000000000   1.0000000
B2   B   0.945877920337354   0.723249733995887   0.375000000000000   1.0000000
B2   B   0.777962623299893   0.221493316403966   0.375000000000000   1.0000000
B2   B   0.111119387217936   0.888887227539143   0.875000000000000   1.0000000
B2   B   0.444439679344751   0.888886506339039   0.875000000000000   1.0000000
B2   B   0.277775662823229   0.388886440995390   0.875000000000000   1.0000000
B2   B   0.611110778172169   0.388886440995390   0.875000000000000   1.0000000
B2   B   0.777776417281458   0.888885022833078   0.875000000000000   1.0000000
B2   B   0.944446826994290   0.388893653988578   0.875000000000000   1.0000000
B2   B   0.105946982182998   0.388431306891972   0.375000000000000   1.0000000
B2   B   0.277371813658533   0.887455412995973   0.375000000000000   1.0000000
B2   B   0.611840016929370   0.889802640229255   0.375000000000000   1.0000000
B2   B   0.944163451082708   0.889169882250621   0.375000000000000   1.0000000
B2   B   0.782484324708981   0.388431306891972   0.375000000000000   1.0000000
B2   B   0.277777848693497   0.555555484639841   0.875000000000000   1.0000000
B2   B   0.111113044009598   0.055557754212359   0.875000000000000   1.0000000
B2   B   0.611110778172169   0.555557670510110   0.875000000000000   1.0000000
B2   B   0.444444710202761   0.055557754212359   0.875000000000000   1.0000000
B2   B   0.944446105794185   0.555565493012121   0.875000000000000   1.0000000
B2   B   0.110083599337449   0.555961519674803   0.375000000000000   1.0000000
B2   B   0.777777777777779   0.055555555555557   0.875000000000000   1.0000000
B2   B   0.275337095141385   0.050674190282772   0.375000000000000   1.0000000
B2   B   0.442419112431386   0.565388706717086   0.375000000000000   1.0000000
B2   B   0.782659143050565   0.557996238191950   0.375000000000000   1.0000000
B2   B   0.611840016929370   0.055370710033443   0.375000000000000   1.0000000
B2   B   0.444446892337938   0.555557670510110   0.875000000000000   1.0000000
B2   B   0.943530693104074   0.055370710033443   0.375000000000000   1.0000000
B2   B   0.277767840321214   0.722213946115399   0.875000000000000   1.0000000
B2   B   0.111102477165708   0.222217905249519   0.875000000000000   1.0000000
B2   B   0.444446892337938   0.222222555161166   0.875000000000000   1.0000000
B2   B   0.611115428083817   0.722230856167628   0.875000000000000   1.0000000
B2   B   0.944446105794185   0.722213946115399   0.875000000000000   1.0000000
B2   B   0.777776417281458   0.222224727781710   0.875000000000000   1.0000000
B2   B   0.111111111111114   0.722222222222221   0.375000000000000   1.0000000
B2   B   0.444902026441356   0.727386351150338   0.375000000000000   1.0000000
B2   B   0.267944626616250   0.210363739047636   0.375000000000000   1.0000000
B2   B   0.782484324708981   0.727386351150338   0.375000000000000   1.0000000
B2   B   0.611840951529703   0.221492381803632   0.375000000000000   1.0000000
B2   B   0.943530693104074   0.221493316403966   0.375000000000000   1.0000000
B2   B   0.111113044009598   0.388888623130568   0.875000000000000   1.0000000
B2   B   0.277767840321214   0.888887227539143   0.875000000000000   1.0000000
B2   B   0.611108605551625   0.888885022833078   0.875000000000000   1.0000000
B2   B   0.444444444444443   0.388888888888886   0.875000000000000   1.0000000
B2   B   0.944446826994290   0.888886506339039   0.875000000000000   1.0000000
B2   B   0.110083599337449   0.887455412995973   0.375000000000000   1.0000000
B2   B   0.777775579120978   0.388888623130568   0.875000000000000   1.0000000
B2   B   0.445006431167911   0.889169882250621   0.375000000000000   1.0000000
B2   B   0.267944626616250   0.390914220901943   0.375000000000000   1.0000000
B2   B   0.275337095141385   0.557996238191950   0.375000000000000   1.0000000
B2   B   0.622969594285700   0.390914220901943   0.375000000000000   1.0000000
B2   B   0.777962623299893   0.889802640229255   0.375000000000000   1.0000000
B2   B   0.944163451082708   0.388326902165417   0.375000000000000   1.0000000
B2   B   0.111119387217936   0.555565493012121   0.875000000000000   1.0000000
B2   B   0.277777848693497   0.055555697386992   0.875000000000000   1.0000000
B2   B   0.777777635946342   0.555555484639841   0.875000000000000   1.0000000
B2   B   0.611108605551625   0.055556916051877   0.875000000000000   1.0000000
B2   B   0.944448310500251   0.055556916051877   0.875000000000000   1.0000000
B2   B   0.055517979667583   0.111079724297942   0.125684552750313   1.0000000
B2   B   0.555607327209145   0.611214654418291   0.125698923026833   1.0000000
B2   B   0.388845219497849   0.110988792723018   0.125652385289633   1.0000000
B2   B   0.888927921874260   0.611130627603802   0.125794893196619   1.0000000
B2   B   0.722226515686718   0.111106817646618   0.125765656401196   1.0000000
B2   B   0.055558076102191   0.777775257231144   0.624214340286291   1.0000000
B2   B   0.388884330839975   0.777796966810264   0.624259582633375   1.0000000
B2   B   0.222118678915044   0.277726006124190   0.624301076973167   1.0000000
B2   B   0.722253609035395   0.777815353665754   0.624315447249687   1.0000000
B2   B   0.555607327209145   0.277726006124190   0.624301076973167   1.0000000
B2   B   0.888885823715598   0.277771647431203   0.624238377714025   1.0000000
B2   B   0.222217181128953   0.777775257231144   0.125785659713708   1.0000000
B2   B   0.055517979667583   0.277771588702978   0.125684552750313   1.0000000
B2   B   0.388686157427383   0.277372314854773   0.127166778593765   1.0000000
B2   B   0.555561744630358   0.777815353665754   0.125684552750313   1.0000000
B2   B   0.888912635970282   0.777796966810264   0.125740417366624   1.0000000
B2   B   0.722253609035395   0.277771588702978   0.125684552750313   1.0000000
B2   B   0.055536366523072   0.944420697363047   0.624259582633375   1.0000000
B2   B   0.388884330839975   0.944420697363047   0.624259582633375   1.0000000
B2   B   0.222143573225162   0.444488113835480   0.624347614710366   1.0000000
B2   B   0.555961018478563   0.444647175905946   0.622833221406235   1.0000000
B2   B   0.722226515686718   0.944453031373435   0.624234343598805   1.0000000
B2   B   0.888912635970282   0.444449002493354   0.624259582633375   1.0000000
B2   B   0.055536366523072   0.444449002493354   0.125740417366624   1.0000000
B2   B   0.222202705729534   0.944405411459069   0.125794893196619   1.0000000
B2   B   0.555561685902132   0.944447509617731   0.125761622285974   1.0000000
B2   B   0.388686157427383   0.444647175905946   0.127166778593765   1.0000000
B2   B   0.888885823715598   0.944447509617731   0.125761622285974   1.0000000
B2   B   0.722344540610317   0.444488113835480   0.125652385289633   1.0000000
B2   B   0.222202705729534   0.611130627603802   0.624205106803381   1.0000000
B2   B   0.055517979667583   0.111079724297942   0.624315447249687   1.0000000
B2   B   0.555607327209145   0.611214654418291   0.624301076973167   1.0000000
B2   B   0.388845219497849   0.110988792723018   0.624347614710366   1.0000000
B2   B   0.888927921874260   0.611130627603802   0.624205106803381   1.0000000
B2   B   0.055558076102191   0.611116152204382   0.125785659713708   1.0000000
B2   B   0.722226515686718   0.111106817646618   0.624234343598805   1.0000000
B2   B   0.222143573225162   0.110988792723018   0.125652385289633   1.0000000
B2   B   0.388845219497849   0.611189760108173   0.125652385289633   1.0000000
B2   B   0.722344540610317   0.611189760108173   0.125652385289633   1.0000000
B2   B   0.555561744630358   0.111079724297942   0.125684552750313   1.0000000
B2   B   0.388845219497849   0.611189760108173   0.624347614710366   1.0000000
B2   B   0.888880301959893   0.111106817646618   0.125765656401196   1.0000000
B2   B   0.222217181128953   0.777775257231144   0.624214340286291   1.0000000
B2   B   0.055517979667583   0.277771588702978   0.624315447249687   1.0000000
B2   B   0.388686157427383   0.277372314854773   0.622833221406235   1.0000000
B2   B   0.555561744630358   0.777815353665754   0.624315447249687   1.0000000
B2   B   0.888912635970282   0.777796966810264   0.624259582633375   1.0000000
B2   B   0.722253609035395   0.277771588702978   0.624315447249687   1.0000000
B2   B   0.055558076102191   0.777775257231144   0.125785659713708   1.0000000
B2   B   0.388884330839975   0.777796966810264   0.125740417366624   1.0000000
B2   B   0.222118678915044   0.277726006124190   0.125698923026833   1.0000000
B2   B   0.722253609035395   0.777815353665754   0.125684552750313   1.0000000
B2   B   0.555607327209145   0.277726006124190   0.125698923026833   1.0000000
B2   B   0.888885823715598   0.277771647431203   0.125761622285974   1.0000000
B2   B   0.055536366523072   0.444449002493354   0.624259582633375   1.0000000
B2   B   0.222202705729534   0.944405411459069   0.624205106803381   1.0000000
B2   B   0.555561685902132   0.944447509617731   0.624238377714025   1.0000000
B2   B   0.388686157427383   0.444647175905946   0.622833221406235   1.0000000
B2   B   0.888885823715598   0.944447509617731   0.624238377714025   1.0000000
B2   B   0.055536366523072   0.944420697363047   0.125740417366624   1.0000000
B2   B   0.722344540610317   0.444488113835480   0.624347614710366   1.0000000
B2   B   0.388884330839975   0.944420697363047   0.125740417366624   1.0000000
B2   B   0.222143573225162   0.444488113835480   0.125652385289633   1.0000000
B2   B   0.222202705729534   0.611130627603802   0.125794893196619   1.0000000
B2   B   0.555961018478563   0.444647175905946   0.127166778593765   1.0000000
B2   B   0.722226515686718   0.944453031373435   0.125765656401196   1.0000000
B2   B   0.888912635970282   0.444449002493354   0.125740417366624   1.0000000
B2   B   0.055558076102191   0.611116152204382   0.624214340286291   1.0000000
B2   B   0.222143573225162   0.110988792723018   0.624347614710366   1.0000000
B2   B   0.722344540610317   0.611189760108173   0.624347614710366   1.0000000
B2   B   0.555561744630358   0.111079724297942   0.624315447249687   1.0000000
B2   B   0.888880301959893   0.111106817646618   0.624234343598805   1.0000000


