data_1
_audit_creation_method   'vasp2cif'
_cell_length_a    17.52789999999977
_cell_length_b    17.52789999999977
_cell_length_c    15.0
_cell_angle_alpha    90.0
_cell_angle_beta    90.0
_cell_angle_gamma    119.99999999999916

_symmetry_space_group_name_H-M    'P 1'
loop_
_atom_site_label
_atom_site_type_symbol
_atom_site_fract_x
_atom_site_fract_y
_atom_site_fract_z
_atom_site_occupancy
B2   B   0.905115248986243   0.953549192569328   0.110955643419221   1.0000000
B2   B   0.906416814801562   0.097264134510060   0.111027115979996   1.0000000
B2   B   0.906399487556341   0.239911482162605   0.111079441937792   1.0000000
B2   B   0.905503363617782   0.382020253825259   0.111043057757579   1.0000000
B2   B   0.903009943323156   0.523457911986963   0.111035208201630   1.0000000
B2   B   0.898601922517011   0.664632761056404   0.111060137646744   1.0000000
B2   B   0.901591391629591   0.808434493882482   0.111040167464138   1.0000000
B2   B   0.046295837059937   0.951230138244059   0.110959638044966   1.0000000
B2   B   0.048047284746784   0.095349732354298   0.111023429632800   1.0000000
B2   B   0.049404734768840   0.239358916092018   0.111076385990762   1.0000000
B2   B   0.049586231515718   0.382203311737439   0.111028872835488   1.0000000
B2   B   0.048249014727015   0.524070086177278   0.111043494387279   1.0000000
B2   B   0.045565552272863   0.665446413496118   0.110991798424960   1.0000000
B2   B   0.044715303808402   0.807456077870101   0.110996839069473   1.0000000
B2   B   0.188759175880801   0.950131476322136   0.111022114966088   1.0000000
B2   B   0.189882796250060   0.093702606414785   0.111120006578501   1.0000000
B2   B   0.190801149147998   0.237082718812859   0.111102115954684   1.0000000
B2   B   0.193217797002117   0.381809042107285   0.110912235749804   1.0000000
B2   B   0.193111726139481   0.524540830311510   0.110967821688199   1.0000000
B2   B   0.191721844643083   0.666031504952533   0.111084863276019   1.0000000
B2   B   0.189259574227689   0.807803031019453   0.110994933273162   1.0000000
B2   B   0.332580468700110   0.950685548419750   0.110988922457409   1.0000000
B2   B   0.331932121545584   0.092365187028026   0.111151625022337   1.0000000
B2   B   0.333186089767667   0.235086361305668   0.111229100004457   1.0000000
B2   B   0.333910200893643   0.377951110857881   0.110907469306130   1.0000000
B2   B   0.337773710745651   0.526013451741244   0.110763525229748   1.0000000
B2   B   0.338621940538914   0.666863320274070   0.111059606962346   1.0000000
B2   B   0.333818779433923   0.808637724135532   0.111101246193693   1.0000000
B2   B   0.476543434940478   0.952682486952529   0.110964270560694   1.0000000
B2   B   0.475853041578002   0.094784033287312   0.110985283539313   1.0000000
B2   B   0.474476150034413   0.235861680395466   0.111185035598482   1.0000000
B2   B   0.489967356916622   0.669740502467389   0.111135532924280   1.0000000
B2   B   0.477891022244262   0.810522362613520   0.111080272983885   1.0000000
B2   B   0.620307226779866   0.955487645150345   0.110926505539045   1.0000000
B2   B   0.619649179353324   0.096599103103281   0.111000336448064   1.0000000
B2   B   0.619382974514814   0.238380970961089   0.111134366560395   1.0000000
B2   B   0.621195371494975   0.383651611157158   0.110758465019577   1.0000000
B2   B   0.616058782813881   0.673542726017488   0.111469971888853   1.0000000
B2   B   0.621840464385918   0.815775229208074   0.110995106028776   1.0000000
B2   B   0.763797676512711   0.955710293830562   0.110914093478872   1.0000000
B2   B   0.763375850695513   0.097644974857910   0.111038697756043   1.0000000
B2   B   0.762818897669233   0.239618481803636   0.111105695446478   1.0000000
B2   B   0.761365453854990   0.381619232326359   0.111105098553980   1.0000000
B2   B   0.755067522532720   0.521563299910682   0.110705996635591   1.0000000
B2   B   0.750511163730225   0.664198347958250   0.111403925148551   1.0000000
B2   B   0.761892047448512   0.812012212328446   0.111059510924749   1.0000000
C2   C   0.476735450565561   0.376864231416305   0.111019009345046   1.0000000
C2   C   0.468312535059201   0.505189579917718   0.110728338218384   1.0000000
C2   C   0.513382459744402   0.467699651833554   0.110813979266148   1.0000000
N2   N   0.951680837753989   0.904951519468041   0.110940484266724   1.0000000
N2   N   0.953502406766582   0.049160124668083   0.110974854352421   1.0000000
N2   N   0.954426622434334   0.192489536479642   0.111048597621142   1.0000000
N2   N   0.954333226499587   0.334873621516524   0.111026301060264   1.0000000
N2   N   0.953144479977374   0.476877798926728   0.111014862081158   1.0000000
N2   N   0.950358883784438   0.618778707209702   0.110977317710503   1.0000000
N2   N   0.949874550105397   0.760997665152808   0.111046251017921   1.0000000
N2   N   0.093832516070980   0.903352818530151   0.110980489945399   1.0000000
N2   N   0.095092592951494   0.047117908276894   0.110972070942658   1.0000000
N2   N   0.096215785527065   0.190754945980549   0.111077124697468   1.0000000
N2   N   0.097873338418552   0.334696458606421   0.111012480639985   1.0000000
N2   N   0.097558328909527   0.477243909301063   0.111009237961676   1.0000000
N2   N   0.095949250004506   0.619090128685920   0.111033328162573   1.0000000
N2   N   0.094065123173432   0.760871072964365   0.110951738237931   1.0000000
N2   N   0.237237271525847   0.903230300449046   0.110975610540831   1.0000000
N2   N   0.236992433829263   0.045676560665272   0.111073100075853   1.0000000
N2   N   0.238389642597293   0.189444553800578   0.111210427571173   1.0000000
N2   N   0.239361506729134   0.332100197599386   0.110963015277961   1.0000000
N2   N   0.241885571069202   0.477370591965114   0.110786795367645   1.0000000
N2   N   0.241774045995624   0.619492588264309   0.111075705731348   1.0000000
N2   N   0.238448673236143   0.761176467335687   0.111051959975469   1.0000000
N2   N   0.380980820732379   0.903991352451934   0.110998663489505   1.0000000
N2   N   0.380234858355295   0.045971923545650   0.110978434338415   1.0000000
N2   N   0.379625841389723   0.187538117992087   0.111269035455355   1.0000000
N2   N   0.383561725254602   0.331126682152270   0.111051466447608   1.0000000
N2   N   0.380622191642185   0.473107703703553   0.110660124283964   1.0000000
N2   N   0.389959861387472   0.620717754369003   0.110887054802028   1.0000000
N2   N   0.382648922905815   0.761931276691200   0.111150177665103   1.0000000
N2   N   0.524737094479534   0.906145539396770   0.110955697617183   1.0000000
N2   N   0.523928707454155   0.047923523011653   0.110918894172858   1.0000000
N2   N   0.523028155904110   0.189799284533574   0.111068075052409   1.0000000
N2   N   0.519905814934150   0.331171198177743   0.111073375247254   1.0000000
N2   N   0.526428729300666   0.764511692754206   0.111067632578206   1.0000000
N2   N   0.668839534328747   0.910137678540474   0.110864888405043   1.0000000
N2   N   0.667919992109546   0.050208838450864   0.110981556013314   1.0000000
N2   N   0.667213094605671   0.191020579815661   0.111063971046161   1.0000000
N2   N   0.665814441790059   0.331440098615590   0.111189437548655   1.0000000
N2   N   0.663621291087097   0.472004053257522   0.110031048472755   1.0000000
N2   N   0.657738545524978   0.626340249750474   0.111858746403811   1.0000000
N2   N   0.667759606422336   0.769554488793016   0.111053233376683   1.0000000
N2   N   0.810804204021726   0.908088035105556   0.110931401928235   1.0000000
N2   N   0.811543152836335   0.050812581314923   0.110969782765467   1.0000000
N2   N   0.811169403960288   0.192504366318770   0.111085621057193   1.0000000
N2   N   0.810355358529568   0.334163714338875   0.111065959534080   1.0000000
N2   N   0.808719618389965   0.476114457435546   0.111032623833324   1.0000000
N2   N   0.803864453236718   0.618526254363586   0.111092237126274   1.0000000
N2   N   0.807259877696557   0.762908874873992   0.111111634182441   1.0000000


