data_1
_audit_creation_method   'vasp2cif'
_cell_length_a    17.52789999999977
_cell_length_b    17.52789999999977
_cell_length_c    15.0
_cell_angle_alpha    90.0
_cell_angle_beta    90.0
_cell_angle_gamma    119.99999999999916

_symmetry_space_group_name_H-M    'P 1'
loop_
_atom_site_label
_atom_site_type_symbol
_atom_site_fract_x
_atom_site_fract_y
_atom_site_fract_z
_atom_site_occupancy
B2   B   0.907953494835770   0.957452634533478   0.110970065027321   1.0000000
B2   B   0.907718275053080   0.099161908706605   0.110980866954172   1.0000000
B2   B   0.906665477976556   0.240309357775700   0.111018237723555   1.0000000
B2   B   0.904136941242403   0.381281223680723   0.110904107617143   1.0000000
B2   B   0.896649191361555   0.521749995119885   0.111078378380285   1.0000000
B2   B   0.895465212127710   0.663336605869165   0.111180973718189   1.0000000
B2   B   0.903397685886987   0.811653756022666   0.110991311326514   1.0000000
B2   B   0.047493207976015   0.953399016380935   0.110910902568600   1.0000000
B2   B   0.050132766935908   0.097890750779712   0.110902779563678   1.0000000
B2   B   0.050423397048822   0.240614235295802   0.110963858494795   1.0000000
B2   B   0.048583725838252   0.382272935839628   0.110961985821525   1.0000000
B2   B   0.043878340184092   0.523192484984164   0.111011778844830   1.0000000
B2   B   0.041383810269392   0.664222067277439   0.111087363044831   1.0000000
B2   B   0.042412407677265   0.806978017440240   0.110967617783890   1.0000000
B2   B   0.186877031367783   0.949340760198152   0.110944856181883   1.0000000
B2   B   0.191465130110259   0.095526213017037   0.110925816444521   1.0000000
B2   B   0.192905145924736   0.238810826010214   0.110896997082239   1.0000000
B2   B   0.193251023358728   0.382378669851522   0.110948388409908   1.0000000
B2   B   0.189610851282630   0.524109029486287   0.111024795511825   1.0000000
B2   B   0.186841359039990   0.665212853108745   0.111057560655849   1.0000000
B2   B   0.185705336554630   0.806589614615279   0.110951315497966   1.0000000
B2   B   0.329405235291617   0.948357301485874   0.110958015115266   1.0000000
B2   B   0.329923468543047   0.089841920216889   0.111041784922730   1.0000000
B2   B   0.336992107872937   0.237967789497937   0.110990687749105   1.0000000
B2   B   0.336373753350374   0.380535367637061   0.111222774284562   1.0000000
B2   B   0.335201185336468   0.524895239052468   0.111190911870674   1.0000000
B2   B   0.332072562915779   0.666995738352817   0.111097146669116   1.0000000
B2   B   0.329905247652394   0.807770310649486   0.110929746475990   1.0000000
B2   B   0.473792983994211   0.950835537752044   0.110934947246816   1.0000000
B2   B   0.473203765503515   0.087808688515181   0.111092949278348   1.0000000
B2   B   0.472131188034700   0.222985377448096   0.110705439826896   1.0000000
B2   B   0.487547848325431   0.369115432613257   0.111204160021301   1.0000000
B2   B   0.477761350321186   0.677828530072231   0.110873223494705   1.0000000
B2   B   0.474906973585638   0.813940808575728   0.111119900282768   1.0000000
B2   B   0.619448926244056   0.955984202560955   0.110961226981428   1.0000000
B2   B   0.618510928988433   0.093353101421135   0.111069033456298   1.0000000
B2   B   0.617641607561119   0.230535399671084   0.110992237972846   1.0000000
B2   B   0.615383207226229   0.364655247503896   0.110701949889214   1.0000000
B2   B   0.628019015856863   0.686800487945676   0.110884406730105   1.0000000
B2   B   0.621188053606065   0.819281009344062   0.111211568686444   1.0000000
B2   B   0.764773906195467   0.958355859009937   0.110985230507960   1.0000000
B2   B   0.763652428974976   0.097938800766272   0.111004821791005   1.0000000
B2   B   0.762495191049242   0.237874802382204   0.111024992212231   1.0000000
B2   B   0.760010934873180   0.378341358523230   0.110978107897775   1.0000000
B2   B   0.745880560597980   0.519359960844499   0.111335317900327   1.0000000
B2   B   0.755301630282999   0.670216920875495   0.111337952377833   1.0000000
B2   B   0.766696793298616   0.819043132269564   0.111130518943966   1.0000000
In2   In   0.512882818526224   0.528380344010650   0.111549932679873   1.0000000
N2   N   0.953234169511341   0.907619314208351   0.110916257259952   1.0000000
N2   N   0.955656985061168   0.052114286587212   0.110936930157291   1.0000000
N2   N   0.955219950101652   0.193823639807147   0.111008898891136   1.0000000
N2   N   0.953321038880462   0.335013791932190   0.110903297215128   1.0000000
N2   N   0.947974012196881   0.475982388480243   0.110908008003506   1.0000000
N2   N   0.945316226870120   0.616852062555752   0.111133636065394   1.0000000
N2   N   0.947359032283714   0.760061843945579   0.110996844185335   1.0000000
N2   N   0.092078041676132   0.902823057187283   0.110887662679208   1.0000000
N2   N   0.096436466434719   0.048993685294040   0.110874251568061   1.0000000
N2   N   0.097778739314706   0.192568072430045   0.110878490749055   1.0000000
N2   N   0.097391281825739   0.335398587994170   0.110936284131975   1.0000000
N2   N   0.093752858626168   0.476981665458275   0.110971178619406   1.0000000
N2   N   0.090926053667646   0.617978693242329   0.111065620883257   1.0000000
N2   N   0.090208841170636   0.759409681180064   0.110994409437288   1.0000000
N2   N   0.234103372873658   0.901529820650896   0.110901692558929   1.0000000
N2   N   0.235418008732887   0.044352654661420   0.110981279889260   1.0000000
N2   N   0.240778566482853   0.191078521501075   0.110895793832873   1.0000000
N2   N   0.240105108250139   0.332930987650096   0.110910004489605   1.0000000
N2   N   0.238478151958317   0.477522244765637   0.110990159330398   1.0000000
N2   N   0.236021867735576   0.619134948662269   0.111063630917228   1.0000000
N2   N   0.234239014091416   0.760121475502148   0.110949862623934   1.0000000
N2   N   0.378049793809154   0.902551639506123   0.110882074540633   1.0000000
N2   N   0.377784406634926   0.042599928215252   0.111036438770326   1.0000000
N2   N   0.378285053786811   0.183688756575540   0.110969828529510   1.0000000
N2   N   0.388880469689023   0.334233089837724   0.111162283603407   1.0000000
N2   N   0.376949714886921   0.472727824390420   0.111514183344146   1.0000000
N2   N   0.381298500321166   0.621702518171232   0.111113963334389   1.0000000
N2   N   0.378892278549059   0.762589936427812   0.110992197798083   1.0000000
N2   N   0.523641488434213   0.907787445662005   0.110899408041995   1.0000000
N2   N   0.522841945991756   0.044284898259366   0.111038082815430   1.0000000
N2   N   0.522360439160973   0.180281843545208   0.111044680987464   1.0000000
N2   N   0.522227934418127   0.312926128515300   0.110148187566791   1.0000000
N2   N   0.563945468503060   0.453440476412780   0.112231255219885   1.0000000
N2   N   0.535131462698286   0.647231909717813   0.109859384995444   1.0000000
N2   N   0.525109384848374   0.772348497788322   0.111389339183714   1.0000000
N2   N   0.669575669810106   0.912930572903864   0.111002252207539   1.0000000
N2   N   0.668272769820403   0.049795022120965   0.110974606094407   1.0000000
N2   N   0.667348639728236   0.187146460202688   0.111088789948353   1.0000000
N2   N   0.666578302026376   0.324165411954203   0.110834316479124   1.0000000
N2   N   0.647279270050188   0.456601397987724   0.111389279963539   1.0000000
N2   N   0.665279829958171   0.632889802719915   0.111465636170958   1.0000000
N2   N   0.674033215483216   0.779290333158871   0.111249751105816   1.0000000
N2   N   0.814261863138025   0.913256323135405   0.110982607232722   1.0000000
N2   N   0.812744472934369   0.052687673971077   0.110944421977059   1.0000000
N2   N   0.811537849301703   0.192463910616136   0.111027271824799   1.0000000
N2   N   0.809507382500033   0.332804914798667   0.110914972068230   1.0000000
N2   N   0.799818009570585   0.473382300859746   0.111070317782360   1.0000000
N2   N   0.799309242695435   0.616038155532119   0.111336891516968   1.0000000
N2   N   0.810239133990424   0.767652835803898   0.111060287811666   1.0000000


