data_1
_audit_creation_method   'vasp2cif'
_cell_length_a    17.52789999999977
_cell_length_b    17.52789999999977
_cell_length_c    15.0
_cell_angle_alpha    90.0
_cell_angle_beta    90.0
_cell_angle_gamma    119.99999999999916

_symmetry_space_group_name_H-M    'P 1'
loop_
_atom_site_label
_atom_site_type_symbol
_atom_site_fract_x
_atom_site_fract_y
_atom_site_fract_z
_atom_site_occupancy
B2   B   0.905303268856291   0.953416211752111   0.117915323837026   1.0000000
B2   B   0.904227894467694   0.095906917631575   0.117888060336276   1.0000000
B2   B   0.903828366955069   0.238729262004337   0.117276861229672   1.0000000
B2   B   0.903804615552557   0.381493331019768   0.116794358660091   1.0000000
B2   B   0.904549602128145   0.524224388192609   0.115816483124734   1.0000000
B2   B   0.906004120711830   0.667343239300638   0.116234918491390   1.0000000
B2   B   0.906624997151499   0.811085287710735   0.117741277992123   1.0000000
B2   B   0.047901158121133   0.952247751503239   0.117537226751952   1.0000000
B2   B   0.046735430031816   0.094848242519531   0.117906791268413   1.0000000
B2   B   0.046472708416638   0.237965922083995   0.116307624917493   1.0000000
B2   B   0.046934110021412   0.380869694581336   0.114544420925222   1.0000000
B2   B   0.048037050451181   0.523526121885831   0.114992796902478   1.0000000
B2   B   0.048703806244665   0.666348414082813   0.116040188027271   1.0000000
B2   B   0.048628137597851   0.809399310785920   0.117059360431785   1.0000000
B2   B   0.190751226030303   0.951527271525699   0.117040303185647   1.0000000
B2   B   0.189070912986668   0.093538298631826   0.117712380348939   1.0000000
B2   B   0.188151974821427   0.236315227215431   0.115475887352241   1.0000000
B2   B   0.189326678103832   0.379917560680211   0.108845377932379   1.0000000
B2   B   0.191621608042129   0.522633011819815   0.107524188585803   1.0000000
B2   B   0.192016688261671   0.665560550108172   0.111441529988529   1.0000000
B2   B   0.191504004706050   0.808629274140282   0.115273864651914   1.0000000
B2   B   0.333781208225096   0.951442623209038   0.116015975462922   1.0000000
B2   B   0.332810295558583   0.094176680092042   0.116223192481974   1.0000000
B2   B   0.329719321218494   0.234505986002603   0.114353461943629   1.0000000
B2   B   0.329237127132641   0.377895787019832   0.102131783005699   1.0000000
B2   B   0.335820028033464   0.520321168785802   0.093386392040154   1.0000000
B2   B   0.335681817146921   0.664461736198633   0.101576575509481   1.0000000
B2   B   0.334566521814729   0.808119953714794   0.111418037651701   1.0000000
B2   B   0.476593525145248   0.952092760050222   0.114958512300739   1.0000000
B2   B   0.475905703280327   0.095597448737516   0.115815982868448   1.0000000
B2   B   0.474758381146071   0.238776826019937   0.108241373303333   1.0000000
B2   B   0.466102180114578   0.375524753690760   0.088944293645932   1.0000000
B2   B   0.479823325327646   0.664291873137469   0.093376348362328   1.0000000
B2   B   0.477501654083377   0.808499506841976   0.107485763205162   1.0000000
B2   B   0.619260757388830   0.953198464620507   0.114538204221757   1.0000000
B2   B   0.618622704570193   0.096322375699616   0.116783646707570   1.0000000
B2   B   0.617905075843646   0.239807676083926   0.112462536008928   1.0000000
B2   B   0.616629090027885   0.383543759386561   0.099241501833361   1.0000000
B2   B   0.624717963421823   0.534096617020646   0.088933638411956   1.0000000
B2   B   0.622310003776907   0.670930547596334   0.102169184018265   1.0000000
B2   B   0.620214834367401   0.810793730157614   0.108843278995115   1.0000000
B2   B   0.762165671245139   0.953664693503289   0.116331690279289   1.0000000
B2   B   0.761402208974432   0.096307696775290   0.117291059947149   1.0000000
B2   B   0.760873944783306   0.239251719162825   0.116591233899049   1.0000000
B2   B   0.760335107281075   0.382231679417781   0.112467406461424   1.0000000
B2   B   0.761416297167482   0.525408720033972   0.108237546570866   1.0000000
B2   B   0.765695637046199   0.670457488725037   0.114372235073540   1.0000000
B2   B   0.763851098147781   0.812013445716514   0.115477530794476   1.0000000
N2   N   0.953343739144994   0.905881220919784   0.117758913353427   1.0000000
N2   N   0.951934223051607   0.048213482066084   0.118124644634278   1.0000000
N2   N   0.951245381158067   0.190886998447532   0.117532367501049   1.0000000
N2   N   0.951358620490494   0.333787444669166   0.116875232553866   1.0000000
N2   N   0.952275384682975   0.476576934527472   0.116790749951887   1.0000000
N2   N   0.953391610069473   0.619402923527689   0.116495544236115   1.0000000
N2   N   0.953778926224276   0.762632295877090   0.117537558173125   1.0000000
N2   N   0.095696543394731   0.904454678362419   0.117116205961782   1.0000000
N2   N   0.094269282411513   0.046808344406097   0.117743218919385   1.0000000
N2   N   0.093161925397320   0.189379671808600   0.117279087415422   1.0000000
N2   N   0.093699232929644   0.332793417638745   0.113677246107036   1.0000000
N2   N   0.095491738258316   0.475911951310532   0.112899837843413   1.0000000
N2   N   0.096305932816866   0.618709851487501   0.114618901122198   1.0000000
N2   N   0.096251759524704   0.761576672137560   0.116272462074351   1.0000000
N2   N   0.238557193410297   0.903884880556858   0.116247154186090   1.0000000
N2   N   0.237517715062255   0.046380983354236   0.117498586629202   1.0000000
N2   N   0.234994951124426   0.187565970724549   0.117444399464060   1.0000000
N2   N   0.234115211117408   0.330144878163083   0.110313262288452   1.0000000
N2   N   0.238383046517405   0.474739836055277   0.103373973938624   1.0000000
N2   N   0.239527757278620   0.618044723154915   0.106537328222581   1.0000000
N2   N   0.239136956954836   0.760989355113628   0.112778768847797   1.0000000
N2   N   0.381412000275573   0.903827644421029   0.114587927692809   1.0000000
N2   N   0.380726506300312   0.046758679152096   0.116488610799351   1.0000000
N2   N   0.379450800097347   0.188824094899042   0.113669364857114   1.0000000
N2   N   0.374640969041040   0.327361927695077   0.108153829302037   1.0000000
N2   N   0.377656592059200   0.468911234637572   0.087836656917201   1.0000000
N2   N   0.383013744687362   0.617127919117276   0.092738376511339   1.0000000
N2   N   0.382089865988155   0.760611440388663   0.106508653908637   1.0000000
N2   N   0.524219805704431   0.904639143950201   0.112862207907199   1.0000000
N2   N   0.523545357024048   0.047855868128556   0.116772053784488   1.0000000
N2   N   0.522797679678026   0.191103483236870   0.112902356913573   1.0000000
N2   N   0.520693794404887   0.333794135377877   0.096885127673818   1.0000000
N2   N   0.531278568512178   0.622476367028651   0.087843787660991   1.0000000
N2   N   0.525395016963432   0.761728483203941   0.103349032602190   1.0000000
N2   N   0.667333546521369   0.906426125165104   0.113681901692437   1.0000000
N2   N   0.666341033114231   0.048772662500609   0.116879080435996   1.0000000
N2   N   0.665687877527521   0.191865565229434   0.116146297728991   1.0000000
N2   N   0.664805778573903   0.335341794217411   0.108359557343235   1.0000000
N2   N   0.666410973219659   0.479481314527400   0.096872398818046   1.0000000
N2   N   0.672854839953146   0.625547600564285   0.108218826024116   1.0000000
N2   N   0.670019238292224   0.766038154542675   0.110318196800694   1.0000000
N2   N   0.810771539563652   0.906995197678706   0.117294630535832   1.0000000
N2   N   0.809242396556478   0.048890483559790   0.117565948590034   1.0000000
N2   N   0.808587379427532   0.191544039567827   0.117423519588556   1.0000000
N2   N   0.808262893333148   0.334438814672709   0.116156437871008   1.0000000
N2   N   0.809054562024581   0.477340823694161   0.112903622693397   1.0000000
N2   N   0.811364817870513   0.620713982252959   0.113655838241054   1.0000000
N2   N   0.812606957368985   0.765178600434116   0.117458187650888   1.0000000
As2   As   0.503250565397720   0.497078819963484   0.041760034479202   1.0000000


