data_1
_audit_creation_method   'vasp2cif'
_cell_length_a    14.93631414619966
_cell_length_b    14.936314146199727
_cell_length_c    13.341276283792837
_cell_angle_alpha    90.0
_cell_angle_beta    90.0
_cell_angle_gamma    119.99999999999984

_symmetry_space_group_name_H-M    'P 1'
loop_
_atom_site_label
_atom_site_type_symbol
_atom_site_fract_x
_atom_site_fract_y
_atom_site_fract_z
_atom_site_occupancy
Ge2   Ge   0.480810064221849   0.407071698777575   0.375000000000000   1.0000000
N2   N   0.111129073791551   0.055543755584188   0.125039897943298   1.0000000
N2   N   0.611134834035911   0.555591702336231   0.125593977688260   1.0000000
N2   N   0.444455012784444   0.055537523954093   0.125050491032892   1.0000000
N2   N   0.944453057580358   0.555564217501716   0.125201403362573   1.0000000
N2   N   0.777802414836649   0.055567874084992   0.125107386201073   1.0000000
N2   N   0.111119298683109   0.722226316008233   0.624838070486770   1.0000000
N2   N   0.444455012784444   0.722250822163672   0.624949508967107   1.0000000
N2   N   0.277788326380456   0.222207997958201   0.624703165189264   1.0000000
N2   N   0.777782943832517   0.722218946573973   0.624728320142449   1.0000000
N2   N   0.611117657413032   0.222211174187540   0.624835092693569   1.0000000
N2   N   0.944474857555331   0.222244441464337   0.624890297455794   1.0000000
N2   N   0.277787490641250   0.722239284282577   0.125117759624454   1.0000000
N2   N   0.111146994302936   0.222240163818132   0.125092609851713   1.0000000
N2   N   0.444462162948419   0.222205391745677   0.125450816826820   1.0000000
N2   N   0.611117657413032   0.722239816558841   0.125164907306423   1.0000000
N2   N   0.944453057580358   0.722222173412020   0.125201403362573   1.0000000
N2   N   0.777793271831000   0.222234649844655   0.125122575900223   1.0000000
N2   N   0.111121558237026   0.888879111100877   0.624896225614094   1.0000000
N2   N   0.444456415510487   0.888894874421873   0.624912926208683   1.0000000
N2   N   0.277788326380456   0.388913661755577   0.624703165189264   1.0000000
N2   N   0.611134834035911   0.388876465033036   0.624406022311725   1.0000000
N2   N   0.777793271831000   0.888891955319673   0.624877424099763   1.0000000
N2   N   0.944460363906422   0.388909283487356   0.624858795399417   1.0000000
N2   N   0.111129073791551   0.388918651540678   0.125039897943298   1.0000000
N2   N   0.277787490641250   0.888881539692001   0.125117759624454   1.0000000
N2   N   0.611124177697898   0.888903486902025   0.125063163643059   1.0000000
N2   N   0.444419741620657   0.388876537477007   0.126483121100810   1.0000000
N2   N   0.944460363906422   0.888884413752402   0.125141204600604   1.0000000
N2   N   0.777782943832517   0.388897330591895   0.125271679857558   1.0000000
N2   N   0.277790547648816   0.555588809202924   0.624929005635208   1.0000000
N2   N   0.111129073791551   0.055543755584188   0.624960102056702   1.0000000
N2   N   0.611134834035911   0.555591702336231   0.624406022311725   1.0000000
N2   N   0.444455012784444   0.055537523954093   0.624949508967107   1.0000000
N2   N   0.944453057580358   0.555564217501716   0.624798596637435   1.0000000
N2   N   0.111121558237026   0.555575780469499   0.125103774385906   1.0000000
N2   N   0.777802414836649   0.055567874084992   0.624892613798927   1.0000000
N2   N   0.277790547648816   0.055535071779227   0.125070994364799   1.0000000
N2   N   0.444462162948419   0.555590104536078   0.125450816826820   1.0000000
N2   N   0.777783577353466   0.555558455343387   0.125420786971027   1.0000000
N2   N   0.611124177697898   0.055554024129188   0.125063163643059   1.0000000
N2   N   0.444462162948419   0.555590104536078   0.624549183173166   1.0000000
N2   N   0.944474857555331   0.055563749424350   0.125109702544206   1.0000000
N2   N   0.277787490641250   0.722239284282577   0.624882240375546   1.0000000
N2   N   0.111146994302936   0.222240163818132   0.624907390148301   1.0000000
N2   N   0.444462162948419   0.222205391745677   0.624549183173166   1.0000000
N2   N   0.611117657413032   0.722239816558841   0.624835092693569   1.0000000
N2   N   0.944453057580358   0.722222173412020   0.624798596637435   1.0000000
N2   N   0.777793271831000   0.222234649844655   0.624877424099763   1.0000000
N2   N   0.111119298683109   0.722226316008233   0.125161929513245   1.0000000
N2   N   0.444455012784444   0.722250822163672   0.125050491032892   1.0000000
N2   N   0.277788326380456   0.222207997958201   0.125296834810750   1.0000000
N2   N   0.777782943832517   0.722218946573973   0.125271679857558   1.0000000
N2   N   0.611117657413032   0.222211174187540   0.125164907306423   1.0000000
N2   N   0.944474857555331   0.222244441464337   0.125109702544206   1.0000000
N2   N   0.111129073791551   0.388918651540678   0.624960102056702   1.0000000
N2   N   0.277787490641250   0.888881539692001   0.624882240375546   1.0000000
N2   N   0.611124177697898   0.888903486902025   0.624936836356927   1.0000000
N2   N   0.444419741620657   0.388876537477007   0.623516878899183   1.0000000
N2   N   0.944460363906422   0.888884413752402   0.624858795399417   1.0000000
N2   N   0.111121558237026   0.888879111100877   0.125103774385906   1.0000000
N2   N   0.777782943832517   0.388897330591895   0.624728320142449   1.0000000
N2   N   0.444456415510487   0.888894874421873   0.125087073791317   1.0000000
N2   N   0.277788326380456   0.388913661755577   0.125296834810750   1.0000000
N2   N   0.277790547648816   0.555588809202924   0.125070994364799   1.0000000
N2   N   0.611134834035904   0.388876465033036   0.125593977688260   1.0000000
N2   N   0.777793271831000   0.888891955319680   0.125122575900223   1.0000000
N2   N   0.944460363906422   0.388909283487356   0.125141204600604   1.0000000
N2   N   0.111121558237026   0.555575780469499   0.624896225614094   1.0000000
N2   N   0.277790547648816   0.055535071779227   0.624929005635208   1.0000000
N2   N   0.777783577353466   0.555558455343387   0.624579213028973   1.0000000
N2   N   0.611124177697898   0.055554024129188   0.624936836356927   1.0000000
N2   N   0.944474857555331   0.055563749424350   0.624890297455794   1.0000000
N2   N   0.058031535219572   0.112481022809028   0.375000000000000   1.0000000
N2   N   0.555381995819036   0.614125864459077   0.375000000000000   1.0000000
N2   N   0.388795413368417   0.106777878602740   0.375000000000000   1.0000000
N2   N   0.888857048829051   0.611095191081204   0.375000000000000   1.0000000
N2   N   0.724067936955344   0.111683418319366   0.375000000000000   1.0000000
N2   N   0.055490665330839   0.777746194174307   0.875000000000000   1.0000000
N2   N   0.388829236921218   0.777747630691557   0.875000000000000   1.0000000
N2   N   0.222153892995271   0.277743613164310   0.875000000000000   1.0000000
N2   N   0.722158280797894   0.777744671084471   0.875000000000000   1.0000000
N2   N   0.555488159803556   0.277747524050650   0.875000000000000   1.0000000
N2   N   0.888826174508234   0.277747573231826   0.875000000000000   1.0000000
N2   N   0.221881436678027   0.777607385005681   0.375000000000000   1.0000000
N2   N   0.058031535219572   0.278883845743880   0.375000000000000   1.0000000
N2   N   0.390546261459318   0.270885974337685   0.375000000000000   1.0000000
N2   N   0.556614703307095   0.779901229546850   0.375000000000000   1.0000000
N2   N   0.889330662355837   0.778108687159257   0.375000000000000   1.0000000
N2   N   0.723625179107978   0.277765452852867   0.375000000000000   1.0000000
N2   N   0.055489079305340   0.944411930856548   0.875000000000000   1.0000000
N2   N   0.388829236921218   0.944414939562995   0.875000000000000   1.0000000
N2   N   0.222154127804094   0.444408625388214   0.875000000000000   1.0000000
N2   N   0.555483769967644   0.444408551650483   0.875000000000000   1.0000000
N2   N   0.722158979023256   0.944411974393737   0.875000000000000   1.0000000
N2   N   0.888825442140930   0.444412435337120   0.875000000000000   1.0000000
N2   N   0.056400625878554   0.444968346573119   0.375000000000000   1.0000000
N2   N   0.222009052966708   0.943411502468996   0.375000000000000   1.0000000
N2   N   0.556721223646232   0.945027278489777   0.375000000000000   1.0000000
N2   N   0.390546261459318   0.452993620454954   0.375000000000000   1.0000000
N2   N   0.890675456324418   0.945696236471652   0.375000000000000   1.0000000
N2   N   0.722376703488827   0.445083821022295   0.375000000000000   1.0000000
N2   N   0.222157418439595   0.611077098975122   0.875000000000000   1.0000000
N2   N   0.055487621194844   0.111076711072847   0.875000000000000   1.0000000
N2   N   0.555488159803556   0.611073969086257   0.875000000000000   1.0000000
N2   N   0.388826026501661   0.111082322564440   0.875000000000000   1.0000000
N2   N   0.888823687561771   0.611078510447575   0.875000000000000   1.0000000
N2   N   0.055312259856314   0.611102730949405   0.375000000000000   1.0000000
N2   N   0.722158979023256   0.111080337962876   0.875000000000000   1.0000000
N2   N   0.223656275608564   0.110945291972560   0.375000000000000   1.0000000
N2   N   0.388795413368417   0.615350868098999   0.375000000000000   1.0000000
N2   N   0.722376703488834   0.610626215799875   0.375000000000000   1.0000000
N2   N   0.556614703307095   0.110046807093589   0.375000000000000   1.0000000
N2   N   0.388826026501661   0.611077037270579   0.875000000000000   1.0000000
N2   N   0.891132490292798   0.112232911813084   0.375000000000000   1.0000000
N2   N   0.222160383473050   0.777746858403197   0.875000000000000   1.0000000
N2   N   0.055487621194844   0.277744243455339   0.875000000000000   1.0000000
N2   N   0.388824450060005   0.277748419260606   0.875000000000000   1.0000000
N2   N   0.555493362181641   0.777745432984874   0.875000000000000   1.0000000
N2   N   0.888825442140930   0.777746340137202   0.875000000000000   1.0000000
N2   N   0.722158280797894   0.277746943046759   0.875000000000000   1.0000000
N2   N   0.055312259856314   0.777542862240244   0.375000000000000   1.0000000
N2   N   0.389089974387689   0.779124562115631   0.375000000000000   1.0000000
N2   N   0.225980767869477   0.279657050601410   0.375000000000000   1.0000000
N2   N   0.723625179107978   0.779193059588447   0.375000000000000   1.0000000
N2   N   0.555381995819029   0.274589464693266   0.375000000000000   1.0000000
N2   N   0.890675456324425   0.278312553186110   0.375000000000000   1.0000000
N2   N   0.055489079305340   0.444410481782106   0.875000000000000   1.0000000
N2   N   0.222157418439595   0.944413652797817   0.875000000000000   1.0000000
N2   N   0.555494009614606   0.944413671473964   0.875000000000000   1.0000000
N2   N   0.388824450060005   0.444409364132727   0.875000000000000   1.0000000
N2   N   0.888826174508234   0.944411934609736   0.875000000000000   1.0000000
N2   N   0.056400625878554   0.944765612638764   0.375000000000000   1.0000000
N2   N   0.722153871895720   0.444411597618476   0.875000000000000   1.0000000
N2   N   0.389089974387689   0.943298745605423   0.375000000000000   1.0000000
N2   N   0.223656275608564   0.446044316969340   0.375000000000000   1.0000000
N2   N   0.222009052966708   0.611930883831056   0.375000000000000   1.0000000
N2   N   0.724067936955344   0.945717851969313   0.375000000000000   1.0000000
N2   N   0.889330662355837   0.444555308529936   0.375000000000000   1.0000000
N2   N   0.055490665330839   0.611077804489889   0.875000000000000   1.0000000
N2   N   0.222154127804094   0.111078835749223   0.875000000000000   1.0000000
N2   N   0.722153871895720   0.611075607610609   0.875000000000000   1.0000000
N2   N   0.555493362181641   0.111081262530116   0.875000000000000   1.0000000
N2   N   0.888825301078798   0.111079317206081   0.875000000000000   1.0000000
B2   B   0.112459367034114   0.055939858229745   0.375000000000000   1.0000000
B2   B   0.615385029904929   0.565848639650579   0.375000000000000   1.0000000
B2   B   0.445307426941383   0.053088478411925   0.375000000000000   1.0000000
B2   B   0.944811112415467   0.555615953004509   0.375000000000000   1.0000000
B2   B   0.780117876858243   0.056725605095786   0.375000000000000   1.0000000
B2   B   0.111055726282168   0.722194529807738   0.875000000000000   1.0000000
B2   B   0.444381285282899   0.722215042745275   0.875000000000000   1.0000000
B2   B   0.277655020027319   0.222152884566763   0.875000000000000   1.0000000
B2   B   0.777745163044616   0.722235850527000   0.875000000000000   1.0000000
B2   B   0.611063011253334   0.222159221659709   0.875000000000000   1.0000000
B2   B   0.944372434971092   0.222177079660295   0.875000000000000   1.0000000
B2   B   0.277804077272171   0.722860631186529   0.375000000000000   1.0000000
B2   B   0.114041489019640   0.223687411176488   0.375000000000000   1.0000000
B2   B   0.443876842283229   0.215282545916072   0.375000000000000   1.0000000
B2   B   0.613171606680467   0.726414842467873   0.375000000000000   1.0000000
B2   B   0.944811112415467   0.722528492744286   0.375000000000000   1.0000000
B2   B   0.779901797743491   0.222422918630002   0.375000000000000   1.0000000
B2   B   0.111042757968914   0.888859808366176   0.875000000000000   1.0000000
B2   B   0.444389865699920   0.888861599516635   0.875000000000000   1.0000000
B2   B   0.277655020027319   0.388835468793885   0.875000000000000   1.0000000
B2   B   0.611062885126260   0.388840094058278   0.875000000000000   1.0000000
B2   B   0.777733166915613   0.888893667031675   0.875000000000000   1.0000000
B2   B   0.944389678466551   0.388842056851268   0.875000000000000   1.0000000
B2   B   0.112459367034114   0.389852842137704   0.375000000000000   1.0000000
B2   B   0.277804077272171   0.888276779418957   0.375000000000000   1.0000000
B2   B   0.613034824297894   0.890794560337613   0.375000000000000   1.0000000
B2   B   0.945585708339814   0.889784525183052   0.375000000000000   1.0000000
B2   B   0.779155447796073   0.388397284977104   0.375000000000000   1.0000000
B2   B   0.277688259768653   0.555522820554325   0.875000000000000   1.0000000
B2   B   0.111017017395239   0.055511938852382   0.875000000000000   1.0000000
B2   B   0.611062885126260   0.555556124401296   0.875000000000000   1.0000000
B2   B   0.444381285282899   0.055499575870952   0.875000000000000   1.0000000
B2   B   0.944404884469621   0.555526141054892   0.875000000000000   1.0000000
B2   B   0.111145101304928   0.555922616639780   0.375000000000000   1.0000000
B2   B   0.777726581268596   0.055529957300976   0.875000000000000   1.0000000
B2   B   0.277674501288591   0.053781837278439   0.375000000000000   1.0000000
B2   B   0.443876842283229   0.561927629700515   0.375000000000000   1.0000000
B2   B   0.779160467321335   0.556246900327360   0.375000000000000   1.0000000
B2   B   0.613034824297894   0.055573597293596   0.375000000000000   1.0000000
B2   B   0.444361637473554   0.555545642797297   0.875000000000000   1.0000000
B2   B   0.946828485493185   0.057000464906984   0.375000000000000   1.0000000
B2   B   0.277713212394302   0.722195323451059   0.875000000000000   1.0000000
B2   B   0.111001830967597   0.222167582150463   0.875000000000000   1.0000000
B2   B   0.444361637473554   0.222149328009565   0.875000000000000   1.0000000
B2   B   0.611063011253334   0.722237122926969   0.875000000000000   1.0000000
B2   B   0.944404884469621   0.722212076748063   0.875000000000000   1.0000000
B2   B   0.777733166915613   0.222172833217281   0.875000000000000   1.0000000
B2   B   0.110930745613452   0.722132039473405   0.375000000000000   1.0000000
B2   B   0.445307426941390   0.725552281862801   0.375000000000000   1.0000000
B2   B   0.279603968766406   0.222025968080309   0.375000000000000   1.0000000
B2   B   0.779155447796073   0.724091496152292   0.375000000000000   1.0000000
B2   B   0.613171606680467   0.220090097545914   0.375000000000000   1.0000000
B2   B   0.946828485493185   0.223161353919537   0.375000000000000   1.0000000
B2   B   0.111017017395239   0.388838411876186   0.875000000000000   1.0000000
B2   B   0.277713212394302   0.888851222276572   0.875000000000000   1.0000000
B2   B   0.611063553593249   0.888882628110034   0.875000000000000   1.0000000
B2   B   0.444346473304319   0.388839903318828   0.875000000000000   1.0000000
B2   B   0.944389678466551   0.888880954948597   0.875000000000000   1.0000000
B2   B   0.111145101304928   0.888555817998455   0.375000000000000   1.0000000
B2   B   0.777745163044616   0.388842645850936   0.875000000000000   1.0000000
B2   B   0.445415107911663   0.889374220622510   0.375000000000000   1.0000000
B2   B   0.279603968766406   0.390911334019447   0.375000000000000   1.0000000
B2   B   0.277674501288591   0.557225997343474   0.375000000000000   1.0000000
B2   B   0.615385029904929   0.382869723587665   0.375000000000000   1.0000000
B2   B   0.779901797743491   0.890812212446796   0.375000000000000   1.0000000
B2   B   0.945585708339807   0.389134516490111   0.375000000000000   1.0000000
B2   B   0.111042757968914   0.555516282936053   0.875000000000000   1.0000000
B2   B   0.277688259768653   0.055498772547671   0.875000000000000   1.0000000
B2   B   0.777750038769490   0.555541686051413   0.875000000000000   1.0000000
B2   B   0.611063553593249   0.055514258816544   0.875000000000000   1.0000000
B2   B   0.944372434971092   0.055528688644112   0.875000000000000   1.0000000
B2   B   0.055554510326681   0.111093209486205   0.124889429037226   1.0000000
B2   B   0.555547738770746   0.611271212752850   0.124897409414171   1.0000000
B2   B   0.388810789487030   0.110919913688485   0.124869472619661   1.0000000
B2   B   0.889049066929651   0.611191200131458   0.124909332315938   1.0000000
B2   B   0.722248498664932   0.111087041449754   0.124884320900151   1.0000000
B2   B   0.055629708755914   0.777805070813275   0.625054268752922   1.0000000
B2   B   0.388856400211834   0.777819024101032   0.625128426325554   1.0000000
B2   B   0.222133664775989   0.277733499054666   0.625018703924338   1.0000000
B2   B   0.722285082647525   0.777897298034137   0.625178057215960   1.0000000
B2   B   0.555547738770746   0.277609859351240   0.625102590585822   1.0000000
B2   B   0.888944498354638   0.277785301248555   0.625082076157178   1.0000000
B2   B   0.222225645420608   0.777779489376968   0.124958938170425   1.0000000
B2   B   0.055554510326681   0.277794634173812   0.124889429037226   1.0000000
B2   B   0.388700098968926   0.277496234147838   0.125252196122166   1.0000000
B2   B   0.555539877473343   0.777880162219761   0.124799943640423   1.0000000
B2   B   0.889007690810915   0.777864507055917   0.124904588078612   1.0000000
B2   B   0.722285082647525   0.277721117946745   0.124821942784048   1.0000000
B2   B   0.055583702121698   0.944432440166462   0.625105602685181   1.0000000
B2   B   0.388856400211834   0.944370709444159   0.625128426325554   1.0000000
B2   B   0.222147423388706   0.444500076672799   0.625106805402486   1.0000000
B2   B   0.555685351871481   0.444509342602405   0.624510601222052   1.0000000
B2   B   0.722248498664932   0.944494790548527   0.625115679099849   1.0000000
B2   B   0.889007690810915   0.444476517088362   0.625095411921359   1.0000000
B2   B   0.055583702121698   0.444484595288564   0.124894397314812   1.0000000
B2   B   0.222202114983831   0.944367466969808   0.124884527371461   1.0000000
B2   B   0.555546207189931   0.944439770261637   0.124871013765148   1.0000000
B2   B   0.388700098968926   0.444537198154416   0.125252196122166   1.0000000
B2   B   0.888944498354638   0.944492530439412   0.124917923842814   1.0000000
B2   B   0.722386001792459   0.444475493737433   0.124881563780145   1.0000000
B2   B   0.222202114983831   0.611167981347323   0.625115472628547   1.0000000
B2   B   0.055554510326681   0.111093209486205   0.625110570962774   1.0000000
B2   B   0.555547738770746   0.611271212752850   0.625102590585822   1.0000000
B2   B   0.388810789487030   0.110919913688485   0.625130527380339   1.0000000
B2   B   0.889049066929651   0.611191200131458   0.625090667684076   1.0000000
B2   B   0.055629708755914   0.611157971276011   0.124945731247070   1.0000000
B2   B   0.722248498664932   0.111087041449754   0.625115679099849   1.0000000
B2   B   0.222147423388706   0.110980680049243   0.124893194597515   1.0000000
B2   B   0.388810789487030   0.611224209131853   0.124869472619661   1.0000000
B2   B   0.722386001792459   0.611243841388391   0.124881563780145   1.0000000
B2   B   0.555539877473343   0.110993048586903   0.124799943640423   1.0000000
B2   B   0.388810789487030   0.611224209131853   0.625130527380339   1.0000000
B2   B   0.888924115847115   0.111128724590232   0.124936236058590   1.0000000
B2   B   0.222225645420608   0.777779489376968   0.625041061829575   1.0000000
B2   B   0.055554510326681   0.277794634173812   0.625110570962774   1.0000000
B2   B   0.388700098968926   0.277496234147839   0.624747803877848   1.0000000
B2   B   0.555539877473343   0.777880162219761   0.625200056359562   1.0000000
B2   B   0.889007690810915   0.777864507055917   0.625095411921359   1.0000000
B2   B   0.722285082647525   0.277721117946745   0.625178057215960   1.0000000
B2   B   0.055629708755914   0.777805070813275   0.124945731247070   1.0000000
B2   B   0.388856400211834   0.777819024101032   0.124871573674433   1.0000000
B2   B   0.222133664775989   0.277733499054666   0.124981296075675   1.0000000
B2   B   0.722285082647525   0.777897298034137   0.124821942784048   1.0000000
B2   B   0.555547738770746   0.277609859351240   0.124897409414171   1.0000000
B2   B   0.888944498354638   0.277785301248555   0.124917923842814   1.0000000
B2   B   0.055583702121698   0.444484595288564   0.625105602685181   1.0000000
B2   B   0.222202114983831   0.944367466969808   0.625115472628547   1.0000000
B2   B   0.555546207189931   0.944439770261637   0.625128986234859   1.0000000
B2   B   0.388700098968926   0.444537198154416   0.624747803877848   1.0000000
B2   B   0.888944498354638   0.944492530439412   0.625082076157178   1.0000000
B2   B   0.055583702121698   0.944432440166462   0.124894397314812   1.0000000
B2   B   0.722386001792459   0.444475493737433   0.625118436219861   1.0000000
B2   B   0.388856400211834   0.944370709444159   0.124871573674433   1.0000000
B2   B   0.222147423388713   0.444500076672799   0.124893194597515   1.0000000
B2   B   0.222202114983831   0.611167981347323   0.124884527371461   1.0000000
B2   B   0.555685351871481   0.444509342602405   0.125489398777955   1.0000000
B2   B   0.722248498664932   0.944494790548527   0.124884320900151   1.0000000
B2   B   0.889007690810915   0.444476517088362   0.124904588078612   1.0000000
B2   B   0.055629708755914   0.611157971276011   0.625054268752922   1.0000000
B2   B   0.222147423388706   0.110980680049243   0.625106805402486   1.0000000
B2   B   0.722386001792459   0.611243841388398   0.625118436219861   1.0000000
B2   B   0.555539877473343   0.110993048586903   0.625200056359562   1.0000000
B2   B   0.888924115847115   0.111128724590239   0.625063763941416   1.0000000


