data_1
_audit_creation_method   'vasp2cif'
_cell_length_a    17.52789999999977
_cell_length_b    17.52789999999977
_cell_length_c    15.0
_cell_angle_alpha    90.0
_cell_angle_beta    90.0
_cell_angle_gamma    119.99999999999916

_symmetry_space_group_name_H-M    'P 1'
loop_
_atom_site_label
_atom_site_type_symbol
_atom_site_fract_x
_atom_site_fract_y
_atom_site_fract_z
_atom_site_occupancy
B2   B   0.906780222121725   0.955428437801800   0.111585999151114   1.0000000
B2   B   0.906030541073822   0.097398985492474   0.110632236480489   1.0000000
B2   B   0.905131387832104   0.239377928485425   0.110455929008991   1.0000000
B2   B   0.903368943653936   0.381236184426722   0.109661209608468   1.0000000
B2   B   0.899115048636018   0.522744347858057   0.108560074123233   1.0000000
B2   B   0.900779408698704   0.665415203372477   0.109937011683055   1.0000000
B2   B   0.905706107260982   0.811724545040981   0.110988819936385   1.0000000
B2   B   0.048114657880068   0.953137145535910   0.110269240829496   1.0000000
B2   B   0.048746356749062   0.096422539793286   0.110969003654573   1.0000000
B2   B   0.048530569389540   0.239121308361751   0.111752957341246   1.0000000
B2   B   0.047446404720753   0.381411878700261   0.111450182779157   1.0000000
B2   B   0.044996588525121   0.523216971299458   0.110523898810692   1.0000000
B2   B   0.044455223748993   0.665183953141606   0.109901717762251   1.0000000
B2   B   0.045599916362146   0.808304381238182   0.109696087212807   1.0000000
B2   B   0.188819636303450   0.950476703008803   0.110128483511213   1.0000000
B2   B   0.190929477550002   0.094995226920388   0.112106523961018   1.0000000
B2   B   0.191017310527587   0.237543299519767   0.114660789413998   1.0000000
B2   B   0.191239383623639   0.380849040914698   0.113371084774575   1.0000000
B2   B   0.189839478483573   0.523420093178284   0.111698958455512   1.0000000
B2   B   0.188725920111648   0.665415739864770   0.110161130607900   1.0000000
B2   B   0.188287298927727   0.807615864070380   0.109543276761809   1.0000000
B2   B   0.331413255912957   0.949834223979386   0.109937683687327   1.0000000
B2   B   0.331333626285988   0.091814471558620   0.112025358674924   1.0000000
B2   B   0.334803523762965   0.237152697997059   0.115747944462568   1.0000000
B2   B   0.333549346764105   0.378127834573183   0.114656339019983   1.0000000
B2   B   0.334204906439334   0.523315152374166   0.110854682506851   1.0000000
B2   B   0.333120805082675   0.666073571979965   0.111763487445912   1.0000000
B2   B   0.331810234006091   0.808018453908433   0.110303245367949   1.0000000
B2   B   0.474991781462716   0.951099266587990   0.110256685301889   1.0000000
B2   B   0.474500909073305   0.091329625084764   0.109753530105729   1.0000000
B2   B   0.473389360293336   0.230089357305415   0.110145597963046   1.0000000
B2   B   0.482289354723775   0.375085678278874   0.118003340067015   1.0000000
B2   B   0.477753082962066   0.670736624781196   0.120929041298587   1.0000000
B2   B   0.475766575866122   0.810739869232824   0.114664425499298   1.0000000
B2   B   0.619159461373030   0.954245459498531   0.112635614091852   1.0000000
B2   B   0.618468030138874   0.094625210484428   0.109629706644566   1.0000000
B2   B   0.617665970009479   0.235139039524068   0.107188365545763   1.0000000
B2   B   0.615003445973890   0.374089385225729   0.102062748207056   1.0000000
B2   B   0.623951933190338   0.678179969269263   0.118823204854265   1.0000000
B2   B   0.620442730420438   0.814793263667277   0.120613045657815   1.0000000
B2   B   0.763429974983926   0.955859474898929   0.113870501863543   1.0000000
B2   B   0.762445044450851   0.096938723594319   0.110491030284642   1.0000000
B2   B   0.761494700178476   0.238504661455044   0.109044510524115   1.0000000
B2   B   0.759359717552595   0.380276696093587   0.106037417156183   1.0000000
B2   B   0.750801335393003   0.522461348425901   0.104926221427019   1.0000000
B2   B   0.763237662931003   0.670908684420650   0.106238798782005   1.0000000
B2   B   0.765411919178807   0.815497098363271   0.116437464535156   1.0000000
Ge2   Ge   0.496404555778837   0.523022432574488   0.081905143692684   1.0000000
N2   N   0.953360436506145   0.906779659804509   0.110932951614177   1.0000000
N2   N   0.953910388552955   0.050022673611645   0.110364717141737   1.0000000
N2   N   0.953370602821993   0.192234074226976   0.110662475991103   1.0000000
N2   N   0.952180517060415   0.334337043060912   0.110667381580894   1.0000000
N2   N   0.949163519361041   0.476225730765275   0.109649349834869   1.0000000
N2   N   0.948654945858516   0.618040051662447   0.109698167515445   1.0000000
N2   N   0.950345874665620   0.761304934315842   0.110058950414894   1.0000000
N2   N   0.093862284569386   0.903692794159213   0.109683006024589   1.0000000
N2   N   0.095908054712137   0.048321126793298   0.110711955735764   1.0000000
N2   N   0.096102913435009   0.191251517391609   0.112313359702680   1.0000000
N2   N   0.095928134615717   0.334171604417209   0.112176654542043   1.0000000
N2   N   0.094256336937556   0.476410965643932   0.111421164279809   1.0000000
N2   N   0.093073607389410   0.618223170151818   0.110206613942331   1.0000000
N2   N   0.092907396038544   0.760393456922656   0.109615465292607   1.0000000
N2   N   0.236181834900548   0.902645148935817   0.109655749458153   1.0000000
N2   N   0.236603581398982   0.045514996334622   0.111417834512204   1.0000000
N2   N   0.239224643458597   0.190418009218302   0.114408901492759   1.0000000
N2   N   0.238477151591464   0.332274637297572   0.115929895622401   1.0000000
N2   N   0.238602300064400   0.476233575286834   0.112452268961968   1.0000000
N2   N   0.237545230639958   0.618510270862918   0.110628013163037   1.0000000
N2   N   0.236414151778066   0.760423225868185   0.109684925128664   1.0000000
N2   N   0.379573476449979   0.902942891962293   0.109827217514608   1.0000000
N2   N   0.379180565363454   0.044541589971900   0.110574528262082   1.0000000
N2   N   0.378998060786609   0.186334250535925   0.113770256151453   1.0000000
N2   N   0.384829650920601   0.333489145527632   0.118219346406690   1.0000000
N2   N   0.378134997002719   0.471720932482795   0.107357347880153   1.0000000
N2   N   0.382295709624069   0.619262672993150   0.113100740785668   1.0000000
N2   N   0.380330991261765   0.761304440317770   0.111968134536215   1.0000000
N2   N   0.523664689971050   0.905280689960963   0.111905230374218   1.0000000
N2   N   0.523043003205276   0.045528062893621   0.109665465233188   1.0000000
N2   N   0.522401466642174   0.185223279512081   0.108631831795393   1.0000000
N2   N   0.521190458520377   0.322483739317058   0.107982781692964   1.0000000
N2   N   0.552340309766192   0.467831278597102   0.126949635482816   1.0000000
N2   N   0.531369979650554   0.630875249688167   0.126685517218937   1.0000000
N2   N   0.524764295263324   0.765454883421553   0.120533690913739   1.0000000
N2   N   0.668066223843760   0.908714970842087   0.115784941452552   1.0000000
N2   N   0.667088915784316   0.048700330037770   0.110447055709844   1.0000000
N2   N   0.666292613011475   0.189285121293193   0.108771970084740   1.0000000
N2   N   0.664989509581893   0.329729145582223   0.104127041323107   1.0000000
N2   N   0.652902915713820   0.467557146393211   0.096626272695852   1.0000000
N2   N   0.672491807864218   0.637404299152091   0.092809739959539   1.0000000
N2   N   0.671226536091714   0.771253291277065   0.123101002100866   1.0000000
N2   N   0.812139705503388   0.909491612003178   0.114239738347233   1.0000000
N2   N   0.810847208399077   0.050325882938833   0.111117287015563   1.0000000
N2   N   0.809928613023859   0.191765223985549   0.109934772367741   1.0000000
N2   N   0.808363918879796   0.333611171936052   0.108427727301976   1.0000000
N2   N   0.802581757348743   0.475520221285112   0.106301489619651   1.0000000
N2   N   0.804753742143602   0.618447162337502   0.108654091993409   1.0000000
N2   N   0.811307112201601   0.766367651337690   0.112081439613952   1.0000000


