data_1
_audit_creation_method   'vasp2cif'
_cell_length_a    17.52789999999977
_cell_length_b    17.52789999999977
_cell_length_c    15.0
_cell_angle_alpha    90.0
_cell_angle_beta    90.0
_cell_angle_gamma    119.99999999999916

_symmetry_space_group_name_H-M    'P 1'
loop_
_atom_site_label
_atom_site_type_symbol
_atom_site_fract_x
_atom_site_fract_y
_atom_site_fract_z
_atom_site_occupancy
B2   B   0.904853508690998   0.952347740846939   0.118785767176428   1.0000000
B2   B   0.904727465372184   0.095119790842025   0.119118562429349   1.0000000
B2   B   0.904737027481579   0.237989733639060   0.119080360952825   1.0000000
B2   B   0.904847819122805   0.380922898323950   0.118674710801767   1.0000000
B2   B   0.905311157620321   0.523964420812969   0.116781742038367   1.0000000
B2   B   0.905512923511140   0.666999505799923   0.115077270836168   1.0000000
B2   B   0.905306705901996   0.809811994673884   0.116805485440347   1.0000000
B2   B   0.047723635284405   0.952342492696124   0.120499233593048   1.0000000
B2   B   0.047566803964220   0.095095157015264   0.118889514677243   1.0000000
B2   B   0.047494205575312   0.237962349962484   0.117354104975697   1.0000000
B2   B   0.047515231617366   0.380943191739623   0.118641916258082   1.0000000
B2   B   0.047649655262836   0.523898705181185   0.120253047260098   1.0000000
B2   B   0.047867503584507   0.666824658772753   0.120200666890641   1.0000000
B2   B   0.047892115831059   0.809642762015941   0.120258007595213   1.0000000
B2   B   0.190457618354471   0.952258937490931   0.120533478864089   1.0000000
B2   B   0.190215547065229   0.094808997459111   0.116897953155108   1.0000000
B2   B   0.190075690880865   0.237723344974647   0.111739826062813   1.0000000
B2   B   0.190003916311433   0.380906830454390   0.111678368761918   1.0000000
B2   B   0.190063315993201   0.523975536285910   0.116653508588388   1.0000000
B2   B   0.190374286003889   0.666821431889460   0.120180101544754   1.0000000
B2   B   0.190497959813218   0.809586124362059   0.121080345908256   1.0000000
B2   B   0.333222910445659   0.952254468498427   0.120556128852553   1.0000000
B2   B   0.333073993042956   0.094682147035374   0.115197834139843   1.0000000
B2   B   0.332193882955573   0.236499545588044   0.104889817422557   1.0000000
B2   B   0.331833588914821   0.380278057812745   0.096465702775006   1.0000000
B2   B   0.331986368908724   0.524336429086273   0.104876552824688   1.0000000
B2   B   0.332928304151525   0.667003921114923   0.114951418845185   1.0000000
B2   B   0.333173921816455   0.809639064842300   0.120273787836255   1.0000000
B2   B   0.476055863107322   0.952348301639439   0.120503888310749   1.0000000
B2   B   0.476039790651183   0.094819558002862   0.116917374018283   1.0000000
B2   B   0.475738478357589   0.236524873139812   0.104923301212933   1.0000000
B2   B   0.471547610859804   0.371727907152281   0.076563944478918   1.0000000
B2   B   0.471242487307102   0.528644961154484   0.076198826008308   1.0000000
B2   B   0.475597669066917   0.667857662185945   0.105025078889930   1.0000000
B2   B   0.475948557514588   0.809824686153654   0.116734549451787   1.0000000
B2   B   0.618938232125086   0.952348219891419   0.118775549383340   1.0000000
B2   B   0.618975809574025   0.095101333563640   0.118875663192486   1.0000000
B2   B   0.619083833661937   0.237721191156396   0.111675253568758   1.0000000
B2   B   0.619845879787295   0.380293321978295   0.096567515610829   1.0000000
B2   B   0.628810886112053   0.528660545418664   0.076239012257735   1.0000000
B2   B   0.619732014390275   0.668035364477856   0.096694302627504   1.0000000
B2   B   0.619009511319986   0.809828966721644   0.111835951921723   1.0000000
B2   B   0.761908046270510   0.952340538866107   0.117359076871023   1.0000000
B2   B   0.761839060119681   0.095090698453185   0.119135645664379   1.0000000
B2   B   0.761939432972952   0.237951656157765   0.117313723881245   1.0000000
B2   B   0.762315474907778   0.380897895635307   0.111692080347512   1.0000000
B2   B   0.763746489853057   0.524331182418328   0.105019272069840   1.0000000
B2   B   0.763686308517334   0.667850323986445   0.105139991188716   1.0000000
B2   B   0.762253747434082   0.809814567650611   0.111891591910652   1.0000000
Sn2   Sn   0.523983736066165   0.476657752339821   0.951061568751805   1.0000000
N2   N   0.952439977216538   0.904723336349943   0.119529948431777   1.0000000
N2   N   0.952389578529248   0.047505547783707   0.119602837109329   1.0000000
N2   N   0.952412059361881   0.190393342020276   0.118897321207886   1.0000000
N2   N   0.952364624017797   0.333279049149783   0.119467872488524   1.0000000
N2   N   0.952396741877275   0.476157374681662   0.119428433934063   1.0000000
N2   N   0.952474033846106   0.619065763075674   0.117942691138584   1.0000000
N2   N   0.952494106332998   0.761923158764376   0.117908076987721   1.0000000
N2   N   0.095300159669198   0.904797118671733   0.121107865516515   1.0000000
N2   N   0.095293105855799   0.047615264729499   0.119703991464883   1.0000000
N2   N   0.095393539964590   0.190517444878773   0.116634834676803   1.0000000
N2   N   0.095333638929498   0.333340941383523   0.116423600006247   1.0000000
N2   N   0.095183511367476   0.476170934843404   0.119336627561184   1.0000000
N2   N   0.095238478728519   0.619058138002046   0.120886177575378   1.0000000
N2   N   0.095288136110990   0.761945711093069   0.120763802154053   1.0000000
N2   N   0.238117531829032   0.904819167520640   0.121060607100974   1.0000000
N2   N   0.238153531637337   0.047674856595009   0.118237536972215   1.0000000
N2   N   0.237981984313984   0.190340582849862   0.111533519152488   1.0000000
N2   N   0.238212342163528   0.333422814937623   0.106932810191280   1.0000000
N2   N   0.237815718572031   0.476209688597203   0.111587298549910   1.0000000
N2   N   0.238020939116024   0.619074277905909   0.117826261319967   1.0000000
N2   N   0.238073672595167   0.761941931088334   0.120757629888253   1.0000000
N2   N   0.380917513209566   0.904790857973271   0.121132506739176   1.0000000
N2   N   0.380961641669325   0.047676839746536   0.118278287650482   1.0000000
N2   N   0.380875716273392   0.190316477925538   0.107798840532108   1.0000000
N2   N   0.380038992304558   0.332591111207448   0.092944860575642   1.0000000
N2   N   0.379813459304756   0.476148395745228   0.092639201354038   1.0000000
N2   N   0.380724357013254   0.619187098458552   0.107882971570220   1.0000000
N2   N   0.380857147838368   0.761916150531077   0.117855427948265   1.0000000
N2   N   0.523721042502561   0.904721552354415   0.119503242384672   1.0000000
N2   N   0.523768317451360   0.047625423940376   0.119721410248680   1.0000000
N2   N   0.523796797137188   0.190354250795232   0.111509355922322   1.0000000
N2   N   0.523947519056003   0.332629946872284   0.093065669452721   1.0000000
N2   N   0.523818971372072   0.619999645237939   0.092954532795251   1.0000000
N2   N   0.523700388547143   0.762035041456421   0.111681007705562   1.0000000
N2   N   0.666539930777702   0.904508103413427   0.116527609353922   1.0000000
N2   N   0.666568325330790   0.047505042287872   0.119620116610145   1.0000000
N2   N   0.666580680719933   0.190517758754868   0.116538307578077   1.0000000
N2   N   0.666622596434003   0.333424007259992   0.106915526389885   1.0000000
N2   N   0.667731693825975   0.476159601241121   0.092764440420732   1.0000000
N2   N   0.667617337351567   0.620009985225960   0.092992670385187   1.0000000
N2   N   0.666540326343275   0.761646448983037   0.107180238930699   1.0000000
N2   N   0.809425608937824   0.904497665332220   0.116570769088971   1.0000000
N2   N   0.809445138210072   0.047414558127123   0.118891415274786   1.0000000
N2   N   0.809455935193053   0.190378139738610   0.118917884423883   1.0000000
N2   N   0.809438074619516   0.333327068309464   0.116417728085161   1.0000000
N2   N   0.809796465935732   0.476200280674601   0.111689212603650   1.0000000
N2   N   0.809885397176413   0.619180938582396   0.108073559555035   1.0000000
N2   N   0.809771096265140   0.762033283835188   0.111785084864522   1.0000000


