data_1
_audit_creation_method   'vasp2cif'
_cell_length_a    17.52789999999977
_cell_length_b    17.52789999999977
_cell_length_c    15.0
_cell_angle_alpha    90.0
_cell_angle_beta    90.0
_cell_angle_gamma    119.99999999999916

_symmetry_space_group_name_H-M    'P 1'
loop_
_atom_site_label
_atom_site_type_symbol
_atom_site_fract_x
_atom_site_fract_y
_atom_site_fract_z
_atom_site_occupancy
B2   B   0.908749636977871   0.953530378208505   0.110727172922135   1.0000000
B2   B   0.908854571441619   0.095605554718679   0.110774105232602   1.0000000
B2   B   0.908920980088747   0.237700507544451   0.110729905006417   1.0000000
B2   B   0.908952021853102   0.380129008240406   0.110680872416190   1.0000000
B2   B   0.908001148978468   0.522785856603701   0.110745947917107   1.0000000
B2   B   0.906752689361001   0.665272387216607   0.110765356208155   1.0000000
B2   B   0.904068444067076   0.807098314574064   0.110727691952882   1.0000000
B2   B   0.050480475681452   0.953882580318624   0.110695349064788   1.0000000
B2   B   0.052616887928389   0.097423951807116   0.110783929384594   1.0000000
B2   B   0.052077176492232   0.238958457097831   0.110822489943727   1.0000000
B2   B   0.050932720048217   0.381225575916835   0.110728528252434   1.0000000
B2   B   0.049440443754656   0.524365179626908   0.110714276073415   1.0000000
B2   B   0.049005958006565   0.667546558411080   0.110753863548720   1.0000000
B2   B   0.048889072531226   0.810543635635440   0.110737048224486   1.0000000
B2   B   0.193391593574785   0.955421941780132   0.110685989268110   1.0000000
B2   B   0.196789252558208   0.100409062601075   0.110715617878757   1.0000000
B2   B   0.196811210930726   0.241818679903817   0.110765100544068   1.0000000
B2   B   0.193840813644958   0.382370390973375   0.110734136239317   1.0000000
B2   B   0.190152926854806   0.525284899905260   0.110679975540518   1.0000000
B2   B   0.190112489600312   0.668784295158504   0.110742619785509   1.0000000
B2   B   0.191721385834734   0.811900683400103   0.110739788835104   1.0000000
B2   B   0.335639664754571   0.955336521224089   0.110725807554607   1.0000000
B2   B   0.338029075369656   0.099768601031420   0.110727031990716   1.0000000
B2   B   0.345045577494083   0.248910166173999   0.110777045555285   1.0000000
B2   B   0.340488070088708   0.385471894444370   0.110758971303111   1.0000000
B2   B   0.329921008014269   0.527211381159050   0.110682367254464   1.0000000
B2   B   0.330010190569157   0.670022657886384   0.110740275626595   1.0000000
B2   B   0.334068513934019   0.812466106168017   0.110804291642183   1.0000000
B2   B   0.478093507968868   0.953705451001175   0.110762090123783   1.0000000
B2   B   0.479589412861321   0.096172646678822   0.110765440593496   1.0000000
B2   B   0.482398089460414   0.240052241980860   0.110799900842909   1.0000000
B2   B   0.503490863328558   0.399270832057612   0.110753647048122   1.0000000
B2   B   0.467667664006522   0.668010099269664   0.110678468556093   1.0000000
B2   B   0.476701632955810   0.811417965821906   0.110758273613346   1.0000000
B2   B   0.621210857027066   0.953692243213501   0.110761001121976   1.0000000
B2   B   0.622226288530540   0.094532851632201   0.110736604642130   1.0000000
B2   B   0.623463720150423   0.235133865078501   0.110735236093357   1.0000000
B2   B   0.625963106599806   0.374426203646259   0.110813432570411   1.0000000
B2   B   0.609129895158439   0.497531142156295   0.110677844025771   1.0000000
B2   B   0.620542904723399   0.812909454085591   0.110698079620299   1.0000000
B2   B   0.764969207774381   0.952848355434806   0.110747593532140   1.0000000
B2   B   0.765504842004683   0.094832574959285   0.110729672072688   1.0000000
B2   B   0.766206594939396   0.236558485136669   0.110688212952855   1.0000000
B2   B   0.767239865150589   0.378264679248313   0.110709729297272   1.0000000
B2   B   0.765127099447279   0.519065195029942   0.110732079487472   1.0000000
B2   B   0.759655184246526   0.656096569746672   0.110767394327034   1.0000000
B2   B   0.765311851137064   0.811021406398350   0.110706384934564   1.0000000
Al2   Al   0.615410760210040   0.657645412598987   0.110648367801781   1.0000000
N2   N   0.954404385201155   0.904280064128701   0.110686830190137   1.0000000
N2   N   0.957068952722635   0.048903263799756   0.110756855807290   1.0000000
N2   N   0.956771949311236   0.190682965963471   0.110776885066184   1.0000000
N2   N   0.956364727174978   0.332739600175050   0.110690340109437   1.0000000
N2   N   0.955450662527458   0.475396955632676   0.110701212583901   1.0000000
N2   N   0.954906202330898   0.618464107374957   0.110752239258087   1.0000000
N2   N   0.953659481434451   0.761381485918331   0.110732450355084   1.0000000
N2   N   0.097783239109814   0.906360573996971   0.110684161497081   1.0000000
N2   N   0.100131633173612   0.050202674722698   0.110705588329352   1.0000000
N2   N   0.100678015940930   0.192686878876280   0.110796994189925   1.0000000
N2   N   0.098762991524281   0.333989994724464   0.110775722353065   1.0000000
N2   N   0.096219432466437   0.476477169764752   0.110684510108586   1.0000000
N2   N   0.095929099737273   0.619863520754302   0.110721450691313   1.0000000
N2   N   0.096634579957041   0.763205818442462   0.110728528745985   1.0000000
N2   N   0.240214554964962   0.907225077287989   0.110690169663532   1.0000000
N2   N   0.242266379740084   0.050957120483487   0.110680499134403   1.0000000
N2   N   0.246460282862184   0.196727419719665   0.110735237744963   1.0000000
N2   N   0.243677692736673   0.336874089882456   0.110727729530447   1.0000000
N2   N   0.236559775406786   0.477335823189302   0.110643071845298   1.0000000
N2   N   0.236030778386305   0.620766121117778   0.110692182808404   1.0000000
N2   N   0.238796584540980   0.764177595549737   0.110760320665614   1.0000000
N2   N   0.382698954875672   0.907263059550378   0.110754665549786   1.0000000
N2   N   0.384135455054673   0.050117645471937   0.110720345398315   1.0000000
N2   N   0.386747159441091   0.194689202196392   0.110754797809961   1.0000000
N2   N   0.395939269895239   0.346240767155122   0.110753825671423   1.0000000
N2   N   0.377117731796671   0.480775347416846   0.110725521457511   1.0000000
N2   N   0.374402291992597   0.621909734350329   0.110716153294850   1.0000000
N2   N   0.380964374369201   0.764946469886267   0.110776859855828   1.0000000
N2   N   0.525601119743001   0.906267627976037   0.110756456719884   1.0000000
N2   N   0.526836055270658   0.048079453889934   0.110737978257110   1.0000000
N2   N   0.528416803904669   0.189988024619884   0.110755807260481   1.0000000
N2   N   0.532241468735838   0.332565452711060   0.110814734453254   1.0000000
N2   N   0.465578862449939   0.524639559262547   0.111154614170353   1.0000000
N2   N   0.503245658325513   0.612731085606226   0.110678822490160   1.0000000
N2   N   0.523552700808173   0.763572179547255   0.110653204732711   1.0000000
N2   N   0.669129987745670   0.907398408881902   0.110739947870053   1.0000000
N2   N   0.670131361168017   0.047881959093435   0.110727701474019   1.0000000
N2   N   0.671215461609560   0.188371686471584   0.110690129717318   1.0000000
N2   N   0.673384854100616   0.328300634207108   0.110747524300962   1.0000000
N2   N   0.672458066728522   0.467022165588543   0.110725546807473   1.0000000
N2   N   0.666253739028840   0.597527079838078   0.110676467363372   1.0000000
N2   N   0.671900722593616   0.771256737040934   0.110637247668904   1.0000000
N2   N   0.813931153374169   0.906447142536106   0.110718873610085   1.0000000
N2   N   0.813436398231412   0.047862932283687   0.110729071285002   1.0000000
N2   N   0.813933573545497   0.189554374185519   0.110694853005809   1.0000000
N2   N   0.814740636566912   0.331256722674779   0.110658789595041   1.0000000
N2   N   0.814324463974932   0.473229961878858   0.110706567810200   1.0000000
N2   N   0.813148788405632   0.615216868366968   0.110751980294735   1.0000000
N2   N   0.807745118809774   0.757158492011754   0.110731653181817   1.0000000


