data_1
_audit_creation_method   'vasp2cif'
_cell_length_a    17.52789999999977
_cell_length_b    17.52789999999977
_cell_length_c    15.0
_cell_angle_alpha    90.0
_cell_angle_beta    90.0
_cell_angle_gamma    119.99999999999916

_symmetry_space_group_name_H-M    'P 1'
loop_
_atom_site_label
_atom_site_type_symbol
_atom_site_fract_x
_atom_site_fract_y
_atom_site_fract_z
_atom_site_occupancy
B2   B   0.905255380969852   0.952458252854143   0.117776120948434   1.0000000
B2   B   0.904958741432544   0.095176564061678   0.117805194879796   1.0000000
B2   B   0.904929868552848   0.238071410988825   0.117086229661282   1.0000000
B2   B   0.905102471885140   0.381011577269878   0.116300898050527   1.0000000
B2   B   0.905290253605170   0.523901566079632   0.115243274941674   1.0000000
B2   B   0.905358715556511   0.666751321071290   0.114939462390059   1.0000000
B2   B   0.905103219334799   0.809355809771379   0.116083414378441   1.0000000
B2   B   0.047950249240529   0.952207822719176   0.117819361652942   1.0000000
B2   B   0.047701009129222   0.094902295167859   0.117777729392963   1.0000000
B2   B   0.047597064615488   0.237916433893817   0.116346542591300   1.0000000
B2   B   0.047683486108517   0.380964565650393   0.114835151802048   1.0000000
B2   B   0.047972374039917   0.523859348405786   0.114994943802689   1.0000000
B2   B   0.048090838790967   0.666660080545285   0.115955590120806   1.0000000
B2   B   0.048027256448436   0.809434475795025   0.117061563178357   1.0000000
B2   B   0.190714023483307   0.952120710950438   0.117046827968497   1.0000000
B2   B   0.190801223020763   0.095058189997418   0.116082734874208   1.0000000
B2   B   0.189827248834973   0.237254676241613   0.114028044895994   1.0000000
B2   B   0.189910769228091   0.380653046347381   0.109339941913116   1.0000000
B2   B   0.190587179737333   0.523804084113978   0.108888755256068   1.0000000
B2   B   0.190841447909048   0.666608221463659   0.111894721464465   1.0000000
B2   B   0.190780956336394   0.809364770992843   0.115577534512810   1.0000000
B2   B   0.333487810341126   0.952061346911464   0.115929968037035   1.0000000
B2   B   0.333391309217880   0.094779520973554   0.114937185816123   1.0000000
B2   B   0.333593724948205   0.237736506395920   0.110256670611054   1.0000000
B2   B   0.330329764389914   0.379106037615902   0.098911192552092   1.0000000
B2   B   0.332559096544248   0.523489651007826   0.093107754773213   1.0000000
B2   B   0.333604675054207   0.666555181115108   0.102379199463529   1.0000000
B2   B   0.333529601744272   0.809307576937655   0.111889857754507   1.0000000
B2   B   0.476282678376166   0.952179498778326   0.114971044282155   1.0000000
B2   B   0.476243006819908   0.094855338185758   0.115219855350805   1.0000000
B2   B   0.476067190778680   0.237197336564922   0.110063988992569   1.0000000
B2   B   0.475937102938214   0.377958050151991   0.103531588594812   1.0000000
B2   B   0.476662564491687   0.667603674086693   0.093143348792785   1.0000000
B2   B   0.476342306193743   0.809574688563601   0.108895409618974   1.0000000
B2   B   0.619179921004832   0.952469507958574   0.114834791677731   1.0000000
B2   B   0.619131914850230   0.095046448805644   0.116290321669059   1.0000000
B2   B   0.619252166772498   0.237623350437927   0.113323946266861   1.0000000
B2   B   0.620014091780921   0.380126760447236   0.107385877670138   1.0000000
B2   B   0.622171636899327   0.524206977590231   0.103523945214729   1.0000000
B2   B   0.621062032430019   0.669840209694677   0.098953305141952   1.0000000
B2   B   0.619495865194774   0.810237053530942   0.109370980989004   1.0000000
B2   B   0.762219058105367   0.952545621300554   0.116358345459945   1.0000000
B2   B   0.762064955817862   0.095213394772928   0.117086754143533   1.0000000
B2   B   0.762135318175272   0.238010596843319   0.116272228312115   1.0000000
B2   B   0.762523932151269   0.380894862028646   0.113325296523121   1.0000000
B2   B   0.762932502857809   0.524069508823074   0.110063466249385   1.0000000
B2   B   0.762412830070468   0.666554993766238   0.110260046173280   1.0000000
B2   B   0.762911654901677   0.810338070114261   0.114036842876852   1.0000000
N2   N   0.952539541586247   0.904447866847584   0.117638427502367   1.0000000
N2   N   0.952650002922781   0.047505517454021   0.118161618814585   1.0000000
N2   N   0.952543747426122   0.190421065502181   0.117435514160512   1.0000000
N2   N   0.952529518542410   0.333361851888868   0.116590206917178   1.0000000
N2   N   0.952561212542558   0.476225011473111   0.116150955235273   1.0000000
N2   N   0.952483976198001   0.618957224336261   0.115873169653413   1.0000000
N2   N   0.952455547094734   0.761630211114017   0.116355644263935   1.0000000
N2   N   0.095523643964419   0.904627667861998   0.117572972807182   1.0000000
N2   N   0.095711832374922   0.047619606164941   0.117642793673793   1.0000000
N2   N   0.095257501301993   0.190134547546485   0.116891956142829   1.0000000
N2   N   0.095256790737581   0.333224240536282   0.114086054212086   1.0000000
N2   N   0.095561305750888   0.476180410706323   0.113503843667426   1.0000000
N2   N   0.095584167107378   0.618990004789402   0.114704586515824   1.0000000
N2   N   0.095484846084471   0.761775900722766   0.116500657163606   1.0000000
N2   N   0.238369716199855   0.904662070435983   0.116480682871477   1.0000000
N2   N   0.238514596640227   0.047692084916411   0.116346377168391   1.0000000
N2   N   0.238988282331711   0.190972158772876   0.113604369720712   1.0000000
N2   N   0.237089393805838   0.332231456328170   0.109402110497023   1.0000000
N2   N   0.238302095900534   0.475936877084414   0.105088245774531   1.0000000
N2   N   0.238564301635842   0.618910956279902   0.107395368284469   1.0000000
N2   N   0.238388312362832   0.761753560121323   0.112995983061413   1.0000000
N2   N   0.381153164047062   0.904564938229324   0.114673380336733   1.0000000
N2   N   0.381189138171925   0.047660068030562   0.115851648451996   1.0000000
N2   N   0.381457644141825   0.190953496849792   0.111812048148499   1.0000000
N2   N   0.382820120649341   0.335567982951568   0.104220534691165   1.0000000
N2   N   0.375785100042191   0.471479288484175   0.082125355077910   1.0000000
N2   N   0.381426274604826   0.618729674232035   0.092322569030152   1.0000000
N2   N   0.381234236554516   0.761590852190129   0.107400772855007   1.0000000
N2   N   0.523964320235095   0.904596230318771   0.113500430983632   1.0000000
N2   N   0.523920902030482   0.047587551006820   0.116125746143661   1.0000000
N2   N   0.523981916834981   0.190694051509440   0.112977194405379   1.0000000
N2   N   0.524611083195827   0.334342214912323   0.105668251222890   1.0000000
N2   N   0.528688307712905   0.624395812000421   0.082189530724205   1.0000000
N2   N   0.524211991238744   0.761859306138283   0.105115522552033   1.0000000
N2   N   0.666918165056469   0.904894409790418   0.114105632416425   1.0000000
N2   N   0.666778328364824   0.047618945823943   0.116580434203013   1.0000000
N2   N   0.666742105674249   0.190491894713814   0.115747039812287   1.0000000
N2   N   0.666837668663385   0.333302492419355   0.111199153910927   1.0000000
N2   N   0.665791462970758   0.475530021349746   0.105663574049895   1.0000000
N2   N   0.664585788755397   0.617332721654791   0.104229863143099   1.0000000
N2   N   0.667931059063168   0.763072410307561   0.109436606818275   1.0000000
N2   N   0.810018638313416   0.904901154516015   0.116902174225280   1.0000000
N2   N   0.809718515769348   0.047599931832152   0.117442773496029   1.0000000
N2   N   0.809641038571797   0.190499192540732   0.117132361173972   1.0000000
N2   N   0.809654661198875   0.333405482101380   0.115753292889425   1.0000000
N2   N   0.809445306817256   0.476162729685353   0.112984390561059   1.0000000
N2   N   0.809184320222700   0.618684927047167   0.111816443068564   1.0000000
N2   N   0.809188527724915   0.761169641812205   0.113603930961888   1.0000000
As2   As   0.484589462181940   0.515637219576900   0.031036073248765   1.0000000


