data_1
_audit_creation_method   'vasp2cif'
_cell_length_a    14.93631414619966
_cell_length_b    14.936314146199727
_cell_length_c    13.341276283792837
_cell_angle_alpha    90.0
_cell_angle_beta    90.0
_cell_angle_gamma    119.99999999999984

_symmetry_space_group_name_H-M    'P 1'
loop_
_atom_site_label
_atom_site_type_symbol
_atom_site_fract_x
_atom_site_fract_y
_atom_site_fract_z
_atom_site_occupancy
Sb2   Sb   0.500398903148365   0.416866118240840   0.375000000000000   1.0000000
N2   N   0.111098884188367   0.055536427999237   0.124929674733013   1.0000000
N2   N   0.611154812533642   0.555648293229679   0.121273862120670   1.0000000
N2   N   0.444449825856072   0.055536239220410   0.124659656856202   1.0000000
N2   N   0.944413636070710   0.555540165596807   0.124981303927571   1.0000000
N2   N   0.777799933226311   0.055566633279826   0.125092076456035   1.0000000
N2   N   0.111085194542508   0.722209263937911   0.624799192194836   1.0000000
N2   N   0.444449825856072   0.722246919969005   0.625340343143791   1.0000000
N2   N   0.277736045810491   0.222178942827917   0.626521249431064   1.0000000
N2   N   0.777773627255705   0.722241629904059   0.625918505270643   1.0000000
N2   N   0.611115469491469   0.222187023103130   0.626202592290574   1.0000000
N2   N   0.944457762929543   0.222229018807416   0.624854566157689   1.0000000
N2   N   0.277768230058274   0.722224020571004   0.125141082001221   1.0000000
N2   N   0.111113677995573   0.222223505664444   0.124691629924451   1.0000000
N2   N   0.444452551650965   0.222193002480396   0.122986869116398   1.0000000
N2   N   0.611115469491469   0.722261779721675   0.123797407709427   1.0000000
N2   N   0.944413636070710   0.722206803807231   0.124981303927571   1.0000000
N2   N   0.777789427441148   0.222210990626428   0.124894304206357   1.0000000
N2   N   0.111092838300830   0.888872475141741   0.624817374178653   1.0000000
N2   N   0.444448219057231   0.888890776195280   0.624833070074588   1.0000000
N2   N   0.277736045810491   0.388890436315888   0.626521249431064   1.0000000
N2   N   0.611154812533642   0.388839852637298   0.628726137879330   1.0000000
N2   N   0.777789427441148   0.888911770148021   0.625105695793636   1.0000000
N2   N   0.944437289249365   0.388884303572728   0.624835287051862   1.0000000
N2   N   0.111098884188367   0.388895789522459   0.124929674733013   1.0000000
N2   N   0.277768230058274   0.888877542820542   0.125141082001221   1.0000000
N2   N   0.611125553959407   0.888911686239846   0.124979967499370   1.0000000
N2   N   0.444337726736216   0.388835530034772   0.122019179228502   1.0000000
N2   N   0.944437289249365   0.888886319009979   0.125164712948153   1.0000000
N2   N   0.777773627255705   0.388865330684981   0.124081494729392   1.0000000
N2   N   0.277775496477708   0.555569517155143   0.625422640951045   1.0000000
N2   N   0.111098884188367   0.055536427999237   0.625070325266987   1.0000000
N2   N   0.611154812533642   0.555648293229679   0.628726137879330   1.0000000
N2   N   0.444449825856072   0.055536239220410   0.625340343143791   1.0000000
N2   N   0.944413636070710   0.555540165596807   0.625018696072415   1.0000000
N2   N   0.111092838300830   0.555553696492424   0.125182625821347   1.0000000
N2   N   0.777799933226311   0.055566633279826   0.624907923543987   1.0000000
N2   N   0.277775496477708   0.055539312655928   0.124577359048948   1.0000000
N2   N   0.444452551650965   0.555592882503891   0.122986869116398   1.0000000
N2   N   0.777745526158055   0.555539429745680   0.123511822215824   1.0000000
N2   N   0.611125553959407   0.055547201052911   0.124979967499370   1.0000000
N2   N   0.444452551650965   0.555592882503891   0.627013130883617   1.0000000
N2   N   0.944457762929543   0.055562077455469   0.125145433842275   1.0000000
N2   N   0.277768230058274   0.722224020571004   0.624858917998758   1.0000000
N2   N   0.111113677995573   0.222223505664444   0.625308370075570   1.0000000
N2   N   0.444452551650965   0.222193002480396   0.627013130883617   1.0000000
N2   N   0.611115469491469   0.722261779721675   0.626202592290574   1.0000000
N2   N   0.944413636070710   0.722206803807231   0.625018696072415   1.0000000
N2   N   0.777789427441148   0.222210990626428   0.625105695793636   1.0000000
N2   N   0.111085194542508   0.722209263937911   0.125200807805151   1.0000000
N2   N   0.444449825856072   0.722246919969005   0.124659656856202   1.0000000
N2   N   0.277736045810491   0.222178942827917   0.123478750568936   1.0000000
N2   N   0.777773627255705   0.722241629904059   0.124081494729392   1.0000000
N2   N   0.611115469491469   0.222187023103130   0.123797407709427   1.0000000
N2   N   0.944457762929543   0.222229018807416   0.125145433842275   1.0000000
N2   N   0.111098884188367   0.388895789522459   0.625070325266987   1.0000000
N2   N   0.277768230058274   0.888877542820542   0.624858917998758   1.0000000
N2   N   0.611125553959407   0.888911686239846   0.625020032500665   1.0000000
N2   N   0.444337726736216   0.388835530034772   0.627980820771491   1.0000000
N2   N   0.944437289249365   0.888886319009979   0.624835287051862   1.0000000
N2   N   0.111092838300830   0.888872475141741   0.125182625821347   1.0000000
N2   N   0.777773627255705   0.388865330684981   0.625918505270643   1.0000000
N2   N   0.444448219057231   0.888890776195280   0.125166929925412   1.0000000
N2   N   0.277736045810491   0.388890436315888   0.123478750568936   1.0000000
N2   N   0.277775496477708   0.555569517155143   0.124577359048948   1.0000000
N2   N   0.611154812533642   0.388839852637298   0.121273862120670   1.0000000
N2   N   0.777789427441148   0.888911770148021   0.124894304206357   1.0000000
N2   N   0.944437289249365   0.388884303572728   0.125164712948153   1.0000000
N2   N   0.111092838300830   0.555553696492424   0.624817374178653   1.0000000
N2   N   0.277775496477708   0.055539312655928   0.625422640951045   1.0000000
N2   N   0.777745526158055   0.555539429745680   0.626488177784155   1.0000000
N2   N   0.611125553959407   0.055547201052911   0.625020032500665   1.0000000
N2   N   0.944457762929543   0.055562077455469   0.624854566157689   1.0000000
N2   N   0.057682139000707   0.112403299170465   0.375000000000000   1.0000000
N2   N   0.554493454522580   0.623995026703460   0.375000000000000   1.0000000
N2   N   0.386024913584273   0.102888813126414   0.375000000000000   1.0000000
N2   N   0.883320610231079   0.608326971782196   0.375000000000000   1.0000000
N2   N   0.723321006079557   0.110329543792807   0.375000000000000   1.0000000
N2   N   0.055634134424154   0.777816989713505   0.875000000000000   1.0000000
N2   N   0.388963342636331   0.777818201823323   0.875000000000000   1.0000000
N2   N   0.222297364232004   0.277815348782677   0.875000000000000   1.0000000
N2   N   0.722300468947764   0.777816752672329   0.875000000000000   1.0000000
N2   N   0.555627269601603   0.277807202088536   0.875000000000000   1.0000000
N2   N   0.888968949539305   0.277819452654227   0.875000000000000   1.0000000
N2   N   0.218483973213890   0.775908653273644   0.375000000000000   1.0000000
N2   N   0.057682139000707   0.278612173163578   0.375000000000000   1.0000000
N2   N   0.388770976190199   0.267211590849890   0.375000000000000   1.0000000
N2   N   0.554648340012908   0.783228920933696   0.375000000000000   1.0000000
N2   N   0.887430178541019   0.778031648289657   0.375000000000000   1.0000000
N2   N   0.722856056203118   0.274591606078410   0.375000000000000   1.0000000
N2   N   0.055631123917137   0.944480085952516   0.875000000000000   1.0000000
N2   N   0.388963342636331   0.944478474146359   0.875000000000000   1.0000000
N2   N   0.222293839826755   0.444484951214197   0.875000000000000   1.0000000
N2   N   0.555628231621556   0.444480782477446   0.875000000000000   1.0000000
N2   N   0.722297990017647   0.944482487758233   0.875000000000000   1.0000000
N2   N   0.888973344427508   0.444486687738459   0.875000000000000   1.0000000
N2   N   0.054645217082754   0.444192531040755   0.375000000000000   1.0000000
N2   N   0.218944481314059   0.941062108447141   0.375000000000000   1.0000000
N2   N   0.554701058374833   0.944017195854116   0.375000000000000   1.0000000
N2   N   0.388770976190199   0.454892718673652   0.375000000000000   1.0000000
N2   N   0.890226158314265   0.946194578343201   0.375000000000000   1.0000000
N2   N   0.719187197758236   0.439596286161926   0.375000000000000   1.0000000
N2   N   0.222294866147918   0.611151009234064   0.875000000000000   1.0000000
N2   N   0.055631506011155   0.111147157014054   0.875000000000000   1.0000000
N2   N   0.555627269601603   0.611153400846388   0.875000000000000   1.0000000
N2   N   0.388960674796797   0.111140835447605   0.875000000000000   1.0000000
N2   N   0.888975499598626   0.611154416466002   0.875000000000000   1.0000000
N2   N   0.051611614220216   0.609546777103050   0.375000000000000   1.0000000
N2   N   0.722297990017647   0.111148835592757   0.875000000000000   1.0000000
N2   N   0.221810566315079   0.109170716628357   0.375000000000000   1.0000000
N2   N   0.386024913584273   0.616469433791209   0.375000000000000   1.0000000
N2   N   0.719187197758236   0.612924244929639   0.375000000000000   1.0000000
N2   N   0.554648340012908   0.104752752412549   0.375000000000000   1.0000000
N2   N   0.388960674796797   0.611153172682515   0.875000000000000   1.0000000
N2   N   0.890900025440658   0.112116679387015   0.375000000000000   1.0000000
N2   N   0.222297256061899   0.777815294697614   0.875000000000000   1.0000000
N2   N   0.055631506011155   0.277817682330451   0.875000000000000   1.0000000
N2   N   0.388962419547059   0.277809059417997   0.875000000000000   1.0000000
N2   N   0.555628012324055   0.777818457420410   0.875000000000000   1.0000000
N2   N   0.888973344427508   0.777819990022419   0.875000000000000   1.0000000
N2   N   0.722300468947764   0.277817049608793   0.875000000000000   1.0000000
N2   N   0.051611614220216   0.775398170450509   0.375000000000000   1.0000000
N2   N   0.386115613324105   0.778568469433301   0.375000000000000   1.0000000
N2   N   0.226079987834228   0.279706660583778   0.375000000000000   1.0000000
N2   N   0.722856056203118   0.781597783458044   0.375000000000000   1.0000000
N2   N   0.554493454522580   0.263831761152434   0.375000000000000   1.0000000
N2   N   0.890226158314265   0.277364913304429   0.375000000000000   1.0000000
N2   N   0.055631123917137   0.444484371297929   0.875000000000000   1.0000000
N2   N   0.222294866147918   0.944477190247168   0.875000000000000   1.0000000
N2   N   0.555628157895345   0.944480745614336   0.875000000000000   1.0000000
N2   N   0.388962419547059   0.444486693462398   0.875000000000000   1.0000000
N2   N   0.888968949539305   0.944482830218415   0.875000000000000   1.0000000
N2   N   0.054645217082754   0.943786019375313   0.375000000000000   1.0000000
N2   N   0.722309032414863   0.444487727516790   0.875000000000000   1.0000000
N2   N   0.386115613324105   0.940880477224141   0.375000000000000   1.0000000
N2   N   0.221810566315079   0.445973183020044   0.375000000000000   1.0000000
N2   N   0.218944481314059   0.611215706200203   0.375000000000000   1.0000000
N2   N   0.723321006079557   0.946324795620065   0.375000000000000   1.0000000
N2   N   0.887430178541019   0.442731863584675   0.375000000000000   1.0000000
N2   N   0.055634134424154   0.611150478043998   0.875000000000000   1.0000000
N2   N   0.222293839826755   0.111142221945894   0.875000000000000   1.0000000
N2   N   0.722309032414863   0.611154638231408   0.875000000000000   1.0000000
N2   N   0.555628012324055   0.111142888237016   0.875000000000000   1.0000000
N2   N   0.888967527337761   0.111150430335537   0.875000000000000   1.0000000
B2   B   0.111295661653095   0.055035886847085   0.375000000000000   1.0000000
B2   B   0.610427319805935   0.572708623085828   0.375000000000000   1.0000000
B2   B   0.443152939493264   0.050244321655389   0.375000000000000   1.0000000
B2   B   0.940535984255504   0.553750082300891   0.375000000000000   1.0000000
B2   B   0.779895736723973   0.056614535028651   0.375000000000000   1.0000000
B2   B   0.111188004021216   0.722260668677262   0.875000000000000   1.0000000
B2   B   0.444514190565822   0.722254642938848   0.875000000000000   1.0000000
B2   B   0.277856909630645   0.222262412496650   0.875000000000000   1.0000000
B2   B   0.777853824213800   0.722254878989820   0.875000000000000   1.0000000
B2   B   0.611179620799982   0.222261785714994   0.875000000000000   1.0000000
B2   B   0.944529103043870   0.222264280510680   0.875000000000000   1.0000000
B2   B   0.274862398353442   0.721854400845589   0.375000000000000   1.0000000
B2   B   0.114497512107254   0.223915422720295   0.375000000000000   1.0000000
B2   B   0.442068962249721   0.211515229706586   0.375000000000000   1.0000000
B2   B   0.612119224086577   0.731940568857547   0.375000000000000   1.0000000
B2   B   0.940535984255504   0.720119235287920   0.375000000000000   1.0000000
B2   B   0.779515469217332   0.220898044509555   0.375000000000000   1.0000000
B2   B   0.111188314912261   0.888929843842041   0.875000000000000   1.0000000
B2   B   0.444517531055977   0.888925432194652   0.875000000000000   1.0000000
B2   B   0.277856909630645   0.388927830467317   0.875000000000000   1.0000000
B2   B   0.611179230593688   0.388926624444967   0.875000000000000   1.0000000
B2   B   0.777856011497765   0.888926258092115   0.875000000000000   1.0000000
B2   B   0.944525750903279   0.388928790422593   0.875000000000000   1.0000000
B2   B   0.111295661653095   0.389593108139332   0.375000000000000   1.0000000
B2   B   0.274862398353442   0.886341330841196   0.375000000000000   1.0000000
B2   B   0.612026886391057   0.892164831487597   0.375000000000000   1.0000000
B2   B   0.944071289691850   0.889259330677474   0.375000000000000   1.0000000
B2   B   0.777070817621331   0.385824601899899   0.375000000000000   1.0000000
B2   B   0.277851397743005   0.555589570006465   0.875000000000000   1.0000000
B2   B   0.111191766516790   0.055597725893304   0.875000000000000   1.0000000
B2   B   0.611179230593688   0.555585939482136   0.875000000000000   1.0000000
B2   B   0.444514190565822   0.055592880960310   0.875000000000000   1.0000000
B2   B   0.944525068995692   0.555595841131296   0.875000000000000   1.0000000
B2   B   0.108169251293869   0.554989679790791   0.375000000000000   1.0000000
B2   B   0.777857380303212   0.055595356818277   0.875000000000000   1.0000000
B2   B   0.275270341276282   0.051531041444761   0.375000000000000   1.0000000
B2   B   0.442068962249721   0.563887065876465   0.375000000000000   1.0000000
B2   B   0.771534033164077   0.552433683248696   0.375000000000000   1.0000000
B2   B   0.612026886391057   0.053195388236775   0.375000000000000   1.0000000
B2   B   0.444515132678091   0.555586070398000   0.875000000000000   1.0000000
B2   B   0.946732841817870   0.057192424965145   0.375000000000000   1.0000000
B2   B   0.277851862697600   0.722257765637749   0.875000000000000   1.0000000
B2   B   0.111195964775131   0.222264649054230   0.875000000000000   1.0000000
B2   B   0.444515132678091   0.222262395613441   0.875000000000000   1.0000000
B2   B   0.611179620799982   0.722251168418316   0.875000000000000   1.0000000
B2   B   0.944525068995692   0.722262561197761   0.875000000000000   1.0000000
B2   B   0.777856011497765   0.222263086738971   0.875000000000000   1.0000000
B2   B   0.107424442693259   0.720378888013291   0.375000000000000   1.0000000
B2   B   0.443152939493264   0.726241951171190   0.375000000000000   1.0000000
B2   B   0.279590468432077   0.220935340467677   0.375000000000000   1.0000000
B2   B   0.777070817621331   0.724579549054761   0.375000000000000   1.0000000
B2   B   0.612119224086577   0.213511988562378   0.375000000000000   1.0000000
B2   B   0.946732841817870   0.222873750186068   0.375000000000000   1.0000000
B2   B   0.111191766516790   0.388927373956815   0.875000000000000   1.0000000
B2   B   0.277851862697600   0.888927430393165   0.875000000000000   1.0000000
B2   B   0.611184707956715   0.888924684151488   0.875000000000000   1.0000000
B2   B   0.444516549028851   0.388924941181089   0.875000000000000   1.0000000
B2   B   0.944525750903279   0.888930293814029   0.875000000000000   1.0000000
B2   B   0.108169251293869   0.886512904836428   0.375000000000000   1.0000000
B2   B   0.777853824213800   0.388932278557317   0.875000000000000   1.0000000
B2   B   0.443177858391618   0.888255595862474   0.375000000000000   1.0000000
B2   B   0.279590468432077   0.391988461297722   0.375000000000000   1.0000000
B2   B   0.275270341276282   0.557072633164863   0.375000000000000   1.0000000
B2   B   0.610427319805935   0.371052030053421   0.375000000000000   1.0000000
B2   B   0.779515469217332   0.891950758041099   0.375000000000000   1.0000000
B2   B   0.944071289691850   0.388145292347711   0.375000000000000   1.0000000
B2   B   0.111188314912261   0.555591804403550   0.875000000000000   1.0000000
B2   B   0.277851397743005   0.055595161069891   0.875000000000000   1.0000000
B2   B   0.777852089584224   0.555592711458798   0.875000000000000   1.0000000
B2   B   0.611184707956715   0.055593357138535   0.875000000000000   1.0000000
B2   B   0.944529103043870   0.055598155866512   0.875000000000000   1.0000000
B2   B   0.055580635007569   0.111129893852809   0.124973299217763   1.0000000
B2   B   0.555552153339603   0.611120754446778   0.122524109086317   1.0000000
B2   B   0.388883010480686   0.111099161507375   0.124107887896846   1.0000000
B2   B   0.888846428049090   0.611089880691180   0.124513116395435   1.0000000
B2   B   0.722237346951795   0.111104103782074   0.124989939661015   1.0000000
B2   B   0.055536200311469   0.777773165676393   0.624853770992787   1.0000000
B2   B   0.388881476793301   0.777779100118839   0.624987280035131   1.0000000
B2   B   0.222235381695989   0.277784357514666   0.626091632598026   1.0000000
B2   B   0.722217603634953   0.777806485861346   0.625811525168191   1.0000000
B2   B   0.555552153339603   0.277764732226153   0.627475890913683   1.0000000
B2   B   0.888904245820237   0.277767849685934   0.624933907247945   1.0000000
B2   B   0.222206601655385   0.777769967494340   0.125172573605634   1.0000000
B2   B   0.055580635007569   0.277784074488103   0.124973299217763   1.0000000
B2   B   0.388798805660364   0.277664323318123   0.122753088042626   1.0000000
B2   B   0.555556809804224   0.777799136841902   0.124476878801707   1.0000000
B2   B   0.888875828255319   0.777788826944528   0.124758881253461   1.0000000
B2   B   0.722217603634953   0.277744451106950   0.124188474831795   1.0000000
B2   B   0.055556713813767   0.944455824666251   0.624866050149190   1.0000000
B2   B   0.388881476793301   0.944435710007784   0.624987280035131   1.0000000
B2   B   0.222219291399238   0.444439519306699   0.625608702159844   1.0000000
B2   B   0.555626549645794   0.444479941489561   0.628162241742557   1.0000000
B2   B   0.722237346951795   0.944466576503028   0.625010060338999   1.0000000
B2   B   0.888875828255319   0.444420334644084   0.625241118746525   1.0000000
B2   B   0.055556713813767   0.444434222480830   0.125133949850845   1.0000000
B2   B   0.222217259048316   0.944448168794050   0.125002016288563   1.0000000
B2   B   0.555561012553078   0.944447172943214   0.125054013438763   1.0000000
B2   B   0.388798805660364   0.444467815675554   0.122753088042626   1.0000000
B2   B   0.888904245820237   0.944469729467611   0.125066092752048   1.0000000
B2   B   0.722178212801442   0.444399400784472   0.122763066974319   1.0000000
B2   B   0.222217259048316   0.611102423587566   0.624997983711438   1.0000000
B2   B   0.055580635007569   0.111129893852809   0.625026700782216   1.0000000
B2   B   0.555552153339603   0.611120754446778   0.627475890913683   1.0000000
B2   B   0.388883010480686   0.111099161507375   0.625892112103132   1.0000000
B2   B   0.888846428049090   0.611089880691180   0.625486883604565   1.0000000
B2   B   0.055536200311469   0.611096367968441   0.125146229007213   1.0000000
B2   B   0.722237346951795   0.111104103782074   0.625010060338999   1.0000000
B2   B   0.222219291399238   0.111113105425889   0.124391297840156   1.0000000
B2   B   0.388883010480686   0.611117182306668   0.124107887896846   1.0000000
B2   B   0.722178212801442   0.611112145350335   0.122763066974319   1.0000000
B2   B   0.555556809804224   0.111091006295643   0.124476878801707   1.0000000
B2   B   0.388883010480686   0.611117182306668   0.625892112103132   1.0000000
B2   B   0.888916398264083   0.111124865798723   0.125114743104713   1.0000000
B2   B   0.222206601655385   0.777769967494340   0.624827426394367   1.0000000
B2   B   0.055580635007569   0.277784074488103   0.625026700782216   1.0000000
B2   B   0.388798805660364   0.277664323318123   0.627246911957367   1.0000000
B2   B   0.555556809804224   0.777799136841902   0.625523121198294   1.0000000
B2   B   0.888875828255319   0.777788826944528   0.625241118746525   1.0000000
B2   B   0.722217603634953   0.277744451106950   0.625811525168191   1.0000000
B2   B   0.055536200311469   0.777773165676393   0.125146229007213   1.0000000
B2   B   0.388881476793301   0.777779100118839   0.125012719964847   1.0000000
B2   B   0.222235381695989   0.277784357514666   0.123908367401981   1.0000000
B2   B   0.722217603634953   0.777806485861346   0.124188474831795   1.0000000
B2   B   0.555552153339603   0.277764732226153   0.122524109086317   1.0000000
B2   B   0.888904245820237   0.277767849685934   0.125066092752048   1.0000000
B2   B   0.055556713813767   0.444434222480830   0.624866050149190   1.0000000
B2   B   0.222217259048316   0.944448168794050   0.624997983711438   1.0000000
B2   B   0.555561012553078   0.944447172943214   0.624945986561251   1.0000000
B2   B   0.388798805660364   0.444467815675554   0.627246911957367   1.0000000
B2   B   0.888904245820237   0.944469729467611   0.624933907247945   1.0000000
B2   B   0.055556713813767   0.944455824666251   0.125133949850845   1.0000000
B2   B   0.722178212801442   0.444399400784472   0.627236933025688   1.0000000
B2   B   0.388881476793301   0.944435710007784   0.125012719964847   1.0000000
B2   B   0.222219291399238   0.444439519306699   0.124391297840156   1.0000000
B2   B   0.222217259048316   0.611102423587566   0.125002016288563   1.0000000
B2   B   0.555626549645794   0.444479941489561   0.121837758257435   1.0000000
B2   B   0.722237346951795   0.944466576503028   0.124989939661015   1.0000000
B2   B   0.888875828255319   0.444420334644084   0.124758881253461   1.0000000
B2   B   0.055536200311469   0.611096367968441   0.624853770992787   1.0000000
B2   B   0.222219291399238   0.111113105425889   0.625608702159844   1.0000000
B2   B   0.722178212801442   0.611112145350335   0.627236933025688   1.0000000
B2   B   0.555556809804224   0.111091006295643   0.625523121198294   1.0000000
B2   B   0.888916398264083   0.111124865798723   0.624885256895281   1.0000000


