data_1
_audit_creation_method   'vasp2cif'
_cell_length_a    17.52789999999977
_cell_length_b    17.52789999999977
_cell_length_c    15.0
_cell_angle_alpha    90.0
_cell_angle_beta    90.0
_cell_angle_gamma    119.99999999999916

_symmetry_space_group_name_H-M    'P 1'
loop_
_atom_site_label
_atom_site_type_symbol
_atom_site_fract_x
_atom_site_fract_y
_atom_site_fract_z
_atom_site_occupancy
B2   B   0.904645062895913   0.952302070456152   0.110995629673696   1.0000000
B2   B   0.904711460624675   0.095310083754408   0.111055712285910   1.0000000
B2   B   0.904650913890661   0.238198690400992   0.111065117604439   1.0000000
B2   B   0.904186142381562   0.380947521837473   0.110994564720665   1.0000000
B2   B   0.904851236070735   0.523796090687768   0.111029139770928   1.0000000
B2   B   0.904708004454639   0.666379522259782   0.111067750969062   1.0000000
B2   B   0.905184749871919   0.809804423958342   0.111050600623953   1.0000000
B2   B   0.047443111656443   0.952085641198711   0.111002643703243   1.0000000
B2   B   0.047318671011078   0.094864676112748   0.111011728264845   1.0000000
B2   B   0.047698996363083   0.238122840700726   0.111011759539507   1.0000000
B2   B   0.047537362679192   0.381005980541316   0.111018990175930   1.0000000
B2   B   0.047340487770498   0.523785652455990   0.111020056312820   1.0000000
B2   B   0.047542813163459   0.666673137121536   0.111016634343778   1.0000000
B2   B   0.047538506874694   0.809355620952298   0.110987223759339   1.0000000
B2   B   0.190376543052505   0.952075160767214   0.111005699328226   1.0000000
B2   B   0.189830866666912   0.094166881504999   0.111076270910560   1.0000000
B2   B   0.190072695195179   0.237179529108881   0.110994789806193   1.0000000
B2   B   0.191111380893618   0.381204561751208   0.110928463171616   1.0000000
B2   B   0.189959396928979   0.524051693707076   0.111050595299967   1.0000000
B2   B   0.190204511888562   0.666888303420268   0.111093048133121   1.0000000
B2   B   0.190357127577598   0.809521623704370   0.110994716359724   1.0000000
B2   B   0.333298913723963   0.952243010155099   0.111031938890622   1.0000000
B2   B   0.333504422253082   0.094639215337607   0.111131747198047   1.0000000
B2   B   0.332136938024633   0.235102231667798   0.111045820611318   1.0000000
B2   B   0.333586745508422   0.377800633089397   0.110806869076670   1.0000000
B2   B   0.332739598289762   0.526433795228301   0.110842031224141   1.0000000
B2   B   0.333042054088504   0.668041125027109   0.111132763323115   1.0000000
B2   B   0.333284289349433   0.810026266393607   0.111117125757844   1.0000000
B2   B   0.476339550781214   0.952468031079490   0.111022991947744   1.0000000
B2   B   0.476251981995171   0.095021892630095   0.111031046750246   1.0000000
B2   B   0.476967221849630   0.238170069580882   0.111072500170095   1.0000000
B2   B   0.474281320986567   0.378342305079670   0.110910650151951   1.0000000
B2   B   0.475790765069886   0.666541295345875   0.111073249498162   1.0000000
B2   B   0.476328061690270   0.809678315096213   0.111126405353247   1.0000000
B2   B   0.619180445734735   0.952683002658723   0.111023108496806   1.0000000
B2   B   0.619102971520562   0.095838057005689   0.110983765996354   1.0000000
B2   B   0.618574580501019   0.238834965658400   0.111024581030584   1.0000000
B2   B   0.622056125363953   0.525446840571429   0.110981828725439   1.0000000
B2   B   0.619568041425820   0.666197854245880   0.111043052356558   1.0000000
B2   B   0.619169096930464   0.809525228049502   0.111025054926898   1.0000000
B2   B   0.761896693695417   0.952479621401293   0.110991666477665   1.0000000
B2   B   0.761892809315182   0.095472494194091   0.111054830345353   1.0000000
B2   B   0.761691756706091   0.238341147623011   0.111036553457660   1.0000000
B2   B   0.761106778271093   0.381401894742728   0.111022616084758   1.0000000
B2   B   0.761787528145662   0.522981762704113   0.111051869842073   1.0000000
B2   B   0.763559619504006   0.667687119966037   0.111067547583661   1.0000000
B2   B   0.761944941886380   0.809511038634347   0.111000630658912   1.0000000
C2   C   0.384884761552507   0.478795449210606   0.110614806855537   1.0000000
C2   C   0.477823489474120   0.525603461886662   0.110917543707517   1.0000000
C2   C   0.522691350404031   0.478958857484701   0.110889362150908   1.0000000
C2   C   0.618787810484196   0.381292472429646   0.111670780333465   1.0000000
N2   N   0.952367280695058   0.904773234213269   0.110998211738296   1.0000000
N2   N   0.952113452688847   0.047468093268362   0.111000092900429   1.0000000
N2   N   0.952347307391125   0.190593605616688   0.111046370630437   1.0000000
N2   N   0.952048507339072   0.333403403884112   0.111003675570463   1.0000000
N2   N   0.952174116936102   0.476088965267087   0.110967728481829   1.0000000
N2   N   0.952403721608614   0.618991831117255   0.111018326764264   1.0000000
N2   N   0.952279089775769   0.761691431616308   0.111034164022494   1.0000000
N2   N   0.095095351190529   0.904507826167403   0.110957728394886   1.0000000
N2   N   0.094745813638662   0.047025264071266   0.111004802821515   1.0000000
N2   N   0.094887289734703   0.190037825690117   0.110989859960295   1.0000000
N2   N   0.095550056173466   0.333510848493640   0.110977909292058   1.0000000
N2   N   0.094826066868144   0.476228135184965   0.111026046888818   1.0000000
N2   N   0.095018788971922   0.619056209224230   0.111028191668652   1.0000000
N2   N   0.095156389765441   0.761844181829908   0.110960040634404   1.0000000
N2   N   0.238053851471388   0.904611658248699   0.110973595949081   1.0000000
N2   N   0.238080409290570   0.047155667862748   0.111078708787806   1.0000000
N2   N   0.237094575579266   0.188870008198152   0.111045886496427   1.0000000
N2   N   0.238256537744913   0.332458870738296   0.110898024595617   1.0000000
N2   N   0.237627773079149   0.476829462152770   0.110918311652425   1.0000000
N2   N   0.237831609788383   0.619494465583865   0.111102524583628   1.0000000
N2   N   0.238024761003401   0.762095613527783   0.111057053856908   1.0000000
N2   N   0.381101676758358   0.904996544345692   0.111038171492661   1.0000000
N2   N   0.381046106148735   0.047200552224801   0.111043250313519   1.0000000
N2   N   0.381423137681524   0.189656988183489   0.111106417778739   1.0000000
N2   N   0.379699838572260   0.328946155376985   0.110893131709901   1.0000000
N2   N   0.380749845153564   0.621036772390756   0.111028224596881   1.0000000
N2   N   0.381085450310446   0.762854636390832   0.111149606608319   1.0000000
N2   N   0.524011649414539   0.904879586373766   0.111042623733782   1.0000000
N2   N   0.524005929968162   0.047660370423950   0.110953694225036   1.0000000
N2   N   0.523832804910715   0.190041131625499   0.111076690651667   1.0000000
N2   N   0.525743134487124   0.333616070181034   0.111008381874467   1.0000000
N2   N   0.523766467471263   0.618399200648706   0.111012782064628   1.0000000
N2   N   0.523987443380535   0.761772965479617   0.111083557655438   1.0000000
N2   N   0.666687067858649   0.904837927996789   0.110980400718992   1.0000000
N2   N   0.666703432110659   0.048071886925662   0.110991341645279   1.0000000
N2   N   0.666606358595175   0.191492538257166   0.110975667044319   1.0000000
N2   N   0.665001194652077   0.335033595936510   0.111051373011456   1.0000000
N2   N   0.666638677114380   0.474207865144096   0.111017042650944   1.0000000
N2   N   0.668794183630380   0.619953650990939   0.111017620904064   1.0000000
N2   N   0.666525481703775   0.761520163585007   0.111002636824982   1.0000000
N2   N   0.809371992796789   0.904698884521404   0.110954945869500   1.0000000
N2   N   0.809449112368899   0.047748353467226   0.111031641720877   1.0000000
N2   N   0.809360813385082   0.190707109655364   0.111056630867076   1.0000000
N2   N   0.808515581988461   0.333433128898462   0.110981270695936   1.0000000
N2   N   0.809883719953338   0.476241091867881   0.111070440514117   1.0000000
N2   N   0.809384621642898   0.618588593262716   0.111055304166266   1.0000000
N2   N   0.810184687063061   0.762472339601458   0.111034021229529   1.0000000


