data_1
_audit_creation_method   'vasp2cif'
_cell_length_a    17.52789999999977
_cell_length_b    17.52789999999977
_cell_length_c    15.0
_cell_angle_alpha    90.0
_cell_angle_beta    90.0
_cell_angle_gamma    119.99999999999916

_symmetry_space_group_name_H-M    'P 1'
loop_
_atom_site_label
_atom_site_type_symbol
_atom_site_fract_x
_atom_site_fract_y
_atom_site_fract_z
_atom_site_occupancy
Al2   Al   0.493193921157258   0.506807480759739   0.110813159271020   1.0000000
B2   B   0.905984918995220   0.953136247573420   0.111017557625182   1.0000000
B2   B   0.904685892459191   0.095316128736805   0.111041304924373   1.0000000
B2   B   0.904279467938692   0.238014402095716   0.111047718633860   1.0000000
B2   B   0.904352391713485   0.380800866598796   0.110986840425431   1.0000000
B2   B   0.904901817007287   0.523595391764540   0.111002066185769   1.0000000
B2   B   0.905970698840336   0.666699972161765   0.111077897685830   1.0000000
B2   B   0.907092363259985   0.810750436807909   0.111042210157444   1.0000000
B2   B   0.048237402638822   0.951764618557181   0.111009051850512   1.0000000
B2   B   0.046865773622584   0.094017102200777   0.111017557625182   1.0000000
B2   B   0.046459952516278   0.237127618737334   0.110990816669329   1.0000000
B2   B   0.046904242534962   0.380298680654701   0.111004249361304   1.0000000
B2   B   0.047913941715711   0.523174067833478   0.110996073951026   1.0000000
B2   B   0.048601941210864   0.666018239740150   0.111044906126663   1.0000000
B2   B   0.048703590863167   0.808985445242026   0.111061808100392   1.0000000
B2   B   0.191016575953977   0.951298430332836   0.111061808100392   1.0000000
B2   B   0.189251584388087   0.092909657936018   0.111042210157444   1.0000000
B2   B   0.187344679315617   0.234767152510188   0.110986579893281   1.0000000
B2   B   0.188563678336505   0.379061397206167   0.110992624066208   1.0000000
B2   B   0.190896676070463   0.522476161637752   0.111050417823243   1.0000000
B2   B   0.191772500004147   0.665516587743639   0.111026501938168   1.0000000
B2   B   0.191492911500719   0.808509109695285   0.111017434610598   1.0000000
B2   B   0.333983781456849   0.951400079985139   0.111044906126663   1.0000000
B2   B   0.333302049035233   0.094031322355661   0.111077897685830   1.0000000
B2   B   0.329543149566334   0.233680141153314   0.111000528108102   1.0000000
B2   B   0.326842084137750   0.375253780254087   0.111034150861801   1.0000000
B2   B   0.333992078027855   0.520278647400762   0.111124713387959   1.0000000
B2   B   0.335351479303038   0.664650541893960   0.111081078630178   1.0000000
B2   B   0.334485433453359   0.808229521191856   0.111026501938168   1.0000000
B2   B   0.476827953363520   0.952088079480293   0.110996073951026   1.0000000
B2   B   0.476406629432459   0.095100204188709   0.111002066185769   1.0000000
B2   B   0.475792543818642   0.237836415548793   0.111044572650958   1.0000000
B2   B   0.467608902659655   0.372238135359931   0.111123431439293   1.0000000
B2   B   0.479723373796236   0.666009943169143   0.111124713387959   1.0000000
B2   B   0.477525859559246   0.809105345125541   0.111050417823243   1.0000000
B2   B   0.619703340541309   0.953097778661042   0.111004249361304   1.0000000
B2   B   0.619201154597207   0.095649629482512   0.110986840425431   1.0000000
B2   B   0.619041227827602   0.238665536754702   0.111005793596227   1.0000000
B2   B   0.618309269931231   0.381692751264772   0.111031500183215   1.0000000
B2   B   0.627763885836065   0.532393118537350   0.111123431439293   1.0000000
B2   B   0.624748240941917   0.673159937059249   0.111034150861801   1.0000000
B2   B   0.620940623989837   0.811438342859499   0.110992624066208   1.0000000
B2   B   0.762874402458677   0.953542068679725   0.110990816669329   1.0000000
B2   B   0.761987619100287   0.095722553257305   0.111047718633860   1.0000000
B2   B   0.761654521728768   0.238347499467236   0.111037538762452   1.0000000
B2   B   0.761336484441302   0.380960793368401   0.111005793596227   1.0000000
B2   B   0.762165605647211   0.524209477378363   0.111044572650958   1.0000000
B2   B   0.766321880042689   0.670458871630664   0.111000528108102   1.0000000
B2   B   0.765234868685815   0.812657341880387   0.110986579893281   1.0000000
N2   N   0.953783721831686   0.905490687056648   0.110994113864126   1.0000000
N2   N   0.952327473266597   0.047673928651408   0.111014376836536   1.0000000
N2   N   0.951550002881157   0.190163163188424   0.111015695998009   1.0000000
N2   N   0.951721813756513   0.333056997302866   0.110996267030629   1.0000000
N2   N   0.952528852917496   0.475953074845258   0.110955153472728   1.0000000
N2   N   0.953445983918117   0.618836401685257   0.111043100167391   1.0000000
N2   N   0.953929093619074   0.762117810058726   0.111060531110988   1.0000000
N2   N   0.095948894771315   0.904052507146683   0.111017415362857   1.0000000
N2   N   0.094510714861350   0.046217680086319   0.110994113864126   1.0000000
N2   N   0.092807257727744   0.188325045537431   0.110981264176997   1.0000000
N2   N   0.093399734923541   0.332039848201276   0.110964190009152   1.0000000
N2   N   0.095167999738294   0.475445860823485   0.110997929067209   1.0000000
N2   N   0.096202570300295   0.618383033089429   0.111005035896431   1.0000000
N2   N   0.096310899298381   0.761240496230928   0.111028204749793   1.0000000
N2   N   0.238760905687078   0.903690502619618   0.111028204749793   1.0000000
N2   N   0.237883591859280   0.046072308298931   0.111060531110988   1.0000000
N2   N   0.234776464322855   0.186799727468187   0.110981639727057   1.0000000
N2   N   0.232551602780345   0.328579851532859   0.110961162036756   1.0000000
N2   N   0.237341024815543   0.474318838714816   0.111048677565969   1.0000000
N2   N   0.239291363743840   0.617903024890982   0.111038285774897   1.0000000
N2   N   0.239123008070618   0.760878393847388   0.110997220919360   1.0000000
N2   N   0.381618368828570   0.903798831617703   0.111005035896431   1.0000000
N2   N   0.381165000232742   0.046555417999888   0.111043100167391   1.0000000
N2   N   0.380034196238855   0.188552130870253   0.111022707178130   1.0000000
N2   N   0.373260541090428   0.326543256170581   0.111000772081892   1.0000000
N2   N   0.374849653500433   0.467797304202071   0.111060858891966   1.0000000
N2   N   0.382920468754755   0.617080933163244   0.111123223654326   1.0000000
N2   N   0.382098377027017   0.760710038174166   0.111038285774897   1.0000000
N2   N   0.524555541093511   0.904833402179704   0.110997929067209   1.0000000
N2   N   0.524048327071738   0.047472549000510   0.110955153472728   1.0000000
N2   N   0.523717244437196   0.190291529740980   0.111003222306290   1.0000000
N2   N   0.523271211297640   0.333250403154491   0.111041506760710   1.0000000
N2   N   0.532204097714926   0.625151748417559   0.111060858891966   1.0000000
N2   N   0.525682563202181   0.762660377102463   0.111048677565969   1.0000000
N2   N   0.667961553715721   0.906601666994458   0.110964190009152   1.0000000
N2   N   0.666944404614130   0.048279588161493   0.110996267030629   1.0000000
N2   N   0.666605925172967   0.190749387855291   0.110996354963897   1.0000000
N2   N   0.666406774971302   0.333594626945694   0.110989533432020   1.0000000
N2   N   0.666750998762506   0.476730190619356   0.111041506760710   1.0000000
N2   N   0.673458145746416   0.626740860827571   0.111000772081892   1.0000000
N2   N   0.671421550384138   0.767449799137661   0.110961162036756   1.0000000
N2   N   0.811676356380567   0.907194144190254   0.110981264176997   1.0000000
N2   N   0.809838238729574   0.048451399036848   0.111015695998009   1.0000000
N2   N   0.809271942691865   0.190729459226133   0.111046744847528   1.0000000
N2   N   0.809252014062708   0.333395476744030   0.110996354963897   1.0000000
N2   N   0.809709872177019   0.476284157479800   0.111003222306290   1.0000000
N2   N   0.811449271047746   0.619967205679144   0.111022707178130   1.0000000
N2   N   0.813201674449804   0.765224937595151   0.110981639727057   1.0000000


