data_1
_audit_creation_method   'vasp2cif'
_cell_length_a    14.93631414619966
_cell_length_b    14.936314146199727
_cell_length_c    13.341276283792837
_cell_angle_alpha    90.0
_cell_angle_beta    90.0
_cell_angle_gamma    119.99999999999984

_symmetry_space_group_name_H-M    'P 1'
loop_
_atom_site_label
_atom_site_type_symbol
_atom_site_fract_x
_atom_site_fract_y
_atom_site_fract_z
_atom_site_occupancy
O2   O   0.566598748952358   0.449966041142843   0.375000000000000   1.0000000
N2   N   0.111082392601145   0.055559058694564   0.124753523585842   1.0000000
N2   N   0.611091543040771   0.555531944238090   0.125301016057060   1.0000000
N2   N   0.444482765608725   0.055558012928114   0.124751785770480   1.0000000
N2   N   0.944433520420124   0.555540167325267   0.124838745433119   1.0000000
N2   N   0.777755177793504   0.055544255563420   0.124827831307625   1.0000000
N2   N   0.111126456219825   0.722229894776576   0.625151457772865   1.0000000
N2   N   0.444482765608725   0.722258086013946   0.625248214229520   1.0000000
N2   N   0.277734344787595   0.222208617086309   0.624939611401517   1.0000000
N2   N   0.777751519907766   0.722223072529188   0.625191614409064   1.0000000
N2   N   0.611116594014835   0.222194319148235   0.625207694022734   1.0000000
N2   N   0.944393102985726   0.222189784335752   0.625201001946515   1.0000000
N2   N   0.277812219327571   0.722232919371530   0.124819969581797   1.0000000
N2   N   0.111042656184487   0.222187994758908   0.124707292139284   1.0000000
N2   N   0.444490094694111   0.222202590989206   0.124901315932148   1.0000000
N2   N   0.611116594014835   0.722255608199928   0.124792305977266   1.0000000
N2   N   0.944433520420124   0.722226686428194   0.124838745433119   1.0000000
N2   N   0.777757470053825   0.222195170126245   0.124830867166527   1.0000000
N2   N   0.111117348796193   0.888910643429018   0.625178943171932   1.0000000
N2   N   0.444482645707060   0.888907989520195   0.625172269767120   1.0000000
N2   N   0.277734344787595   0.388859061034614   0.624939611401517   1.0000000
N2   N   0.611091543040771   0.388892932136009   0.624698983942940   1.0000000
N2   N   0.777757470053825   0.888895633260908   0.625169132833473   1.0000000
N2   N   0.944421153398168   0.388859746525275   0.625178965362214   1.0000000
N2   N   0.111082392601145   0.388856667239909   0.124753523585842   1.0000000
N2   N   0.277812219327571   0.888912633289369   0.124819969581797   1.0000000
N2   N   0.611126666868903   0.888914664160189   0.124806021989999   1.0000000
N2   N   0.444477826308689   0.388905579821009   0.124659933568392   1.0000000
N2   N   0.944421153398168   0.888894740206221   0.124821034637786   1.0000000
N2   N   0.777751519907766   0.388861780711907   0.124808385590936   1.0000000
N2   N   0.277793550583136   0.555554235221932   0.625193489634002   1.0000000
N2   N   0.111082392601145   0.055559058694564   0.625246476414158   1.0000000
N2   N   0.611091543040771   0.555531944238090   0.624698983942940   1.0000000
N2   N   0.444482765608725   0.055558012928114   0.625248214229520   1.0000000
N2   N   0.944433520420124   0.555540167325267   0.625161254566881   1.0000000
N2   N   0.111117348796193   0.555540038700503   0.124821056828068   1.0000000
N2   N   0.777755177793504   0.055544255563420   0.625172168692376   1.0000000
N2   N   0.277793550583136   0.055572648694540   0.124806510365998   1.0000000
N2   N   0.444490094694111   0.555620837038241   0.124901315932148   1.0000000
N2   N   0.777754620744778   0.555543977039057   0.124829877724351   1.0000000
N2   N   0.611126666868903   0.055545336042043   0.124806021989999   1.0000000
N2   N   0.444490094694111   0.555620837038241   0.625098684067852   1.0000000
N2   N   0.944393102985726   0.055536651983309   0.124798998053484   1.0000000
N2   N   0.277812219327571   0.722232919371530   0.625180030418204   1.0000000
N2   N   0.111042656184487   0.222187994758908   0.625292707860716   1.0000000
N2   N   0.444490094694111   0.222202590989206   0.625098684067852   1.0000000
N2   N   0.611116594014835   0.722255608199928   0.625207694022734   1.0000000
N2   N   0.944433520420124   0.722226686428194   0.625161254566881   1.0000000
N2   N   0.777757470053825   0.222195170126245   0.625169132833473   1.0000000
N2   N   0.111126456219825   0.722229894776576   0.124848542227135   1.0000000
N2   N   0.444482765608725   0.722258086013946   0.124751785770480   1.0000000
N2   N   0.277734344787595   0.222208617086309   0.125060388598483   1.0000000
N2   N   0.777751519907766   0.722223072529188   0.124808385590936   1.0000000
N2   N   0.611116594014835   0.222194319148235   0.124792305977266   1.0000000
N2   N   0.944393102985726   0.222189784335752   0.124798998053484   1.0000000
N2   N   0.111082392601145   0.388856667239909   0.625246476414158   1.0000000
N2   N   0.277812219327571   0.888912633289369   0.625180030418204   1.0000000
N2   N   0.611126666868903   0.888914664160189   0.625193978010002   1.0000000
N2   N   0.444477826308689   0.388905579821009   0.625340066431608   1.0000000
N2   N   0.944421153398168   0.888894740206221   0.625178965362214   1.0000000
N2   N   0.111117348796193   0.888910643429018   0.124821056828068   1.0000000
N2   N   0.777751519907766   0.388861780711907   0.625191614409064   1.0000000
N2   N   0.444482645707060   0.888907989520195   0.124827730232881   1.0000000
N2   N   0.277734344787595   0.388859061034614   0.125060388598483   1.0000000
N2   N   0.277793550583136   0.555554235221932   0.124806510365998   1.0000000
N2   N   0.611091543040771   0.388892932136009   0.125301016057060   1.0000000
N2   N   0.777757470053825   0.888895633260908   0.124830867166527   1.0000000
N2   N   0.944421153398168   0.388859746525275   0.124821034637786   1.0000000
N2   N   0.111117348796193   0.555540038700503   0.625178943171932   1.0000000
N2   N   0.277793550583136   0.055572648694540   0.625193489634002   1.0000000
N2   N   0.777754620744778   0.555543977039057   0.625170122275650   1.0000000
N2   N   0.611126666868903   0.055545336042043   0.625193978010002   1.0000000
N2   N   0.944393102985726   0.055536651983309   0.625201001946515   1.0000000
N2   N   0.055015575554963   0.110632801378562   0.375000000000000   1.0000000
N2   N   0.555984516410215   0.610166611043437   0.375000000000000   1.0000000
N2   N   0.388391131588973   0.108444671654072   0.375000000000000   1.0000000
N2   N   0.889424896226442   0.611379114779892   0.375000000000000   1.0000000
N2   N   0.722206074143943   0.111126641633744   0.375000000000000   1.0000000
N2   N   0.055555144053703   0.777773811266463   0.875000000000000   1.0000000
N2   N   0.388883193298168   0.777776018115014   0.875000000000000   1.0000000
N2   N   0.222225576436689   0.277779454885012   0.875000000000000   1.0000000
N2   N   0.722229504148641   0.777775715063100   0.875000000000000   1.0000000
N2   N   0.555560411314097   0.277787601321927   0.875000000000000   1.0000000
N2   N   0.888899295941369   0.277789394804216   0.875000000000000   1.0000000
N2   N   0.221769826175697   0.777551579754517   0.375000000000000   1.0000000
N2   N   0.055015575554963   0.277716107509737   0.375000000000000   1.0000000
N2   N   0.386652270825186   0.272572124940648   0.375000000000000   1.0000000
N2   N   0.555702807425298   0.777641991048256   0.375000000000000   1.0000000
N2   N   0.889137226652261   0.777845821931151   0.375000000000000   1.0000000
N2   N   0.722389103857857   0.277950074863668   0.375000000000000   1.0000000
N2   N   0.055557405269426   0.944436741788306   0.875000000000000   1.0000000
N2   N   0.388883193298168   0.944440508516490   0.875000000000000   1.0000000
N2   N   0.222220462116114   0.444451114679013   0.875000000000000   1.0000000
N2   N   0.555565798469942   0.444449565901635   0.875000000000000   1.0000000
N2   N   0.722224195749476   0.944442713865557   0.875000000000000   1.0000000
N2   N   0.888900000832898   0.444455494776980   0.875000000000000   1.0000000
N2   N   0.054761065204639   0.444667116848665   0.375000000000000   1.0000000
N2   N   0.221506608315722   0.943242605447665   0.375000000000000   1.0000000
N2   N   0.555623957432151   0.944478645382740   0.375000000000000   1.0000000
N2   N   0.386652270825186   0.447413479217874   0.375000000000000   1.0000000
N2   N   0.888676835577522   0.944240779350783   0.375000000000000   1.0000000
N2   N   0.723816798604923   0.444960229733618   0.375000000000000   1.0000000
N2   N   0.222215077796203   0.611114858632097   0.875000000000000   1.0000000
N2   N   0.055562115441384   0.111109400919411   0.875000000000000   1.0000000
N2   N   0.555560411314097   0.611106143325506   0.875000000000000   1.0000000
N2   N   0.388884522314251   0.111108450673713   0.875000000000000   1.0000000
N2   N   0.888900528334664   0.611116930834004   0.875000000000000   1.0000000
N2   N   0.055309088463483   0.611215124911892   0.375000000000000   1.0000000
N2   N   0.722224195749476   0.111114815217254   0.875000000000000   1.0000000
N2   N   0.220254653492516   0.108661915891709   0.375000000000000   1.0000000
N2   N   0.388391131588973   0.613279793268243   0.375000000000000   1.0000000
N2   N   0.723816798604923   0.612189902204641   0.375000000000000   1.0000000
N2   N   0.555702807425298   0.111394149710379   0.375000000000000   1.0000000
N2   N   0.388884522314251   0.611109404973882   0.875000000000000   1.0000000
N2   N   0.888648458252570   0.110990895792956   0.375000000000000   1.0000000
N2   N   0.222214792478952   0.777774062906144   0.875000000000000   1.0000000
N2   N   0.055562115441384   0.277786047855309   0.875000000000000   1.0000000
N2   N   0.388888922254613   0.277777107604643   0.875000000000000   1.0000000
N2   N   0.555552871099014   0.777773306925898   0.875000000000000   1.0000000
N2   N   0.888900000832898   0.777777839389254   0.875000000000000   1.0000000
N2   N   0.722229504148641   0.277787122418876   0.875000000000000   1.0000000
N2   N   0.055309088463483   0.777427296884927   0.375000000000000   1.0000000
N2   N   0.388620615687065   0.778331861950439   0.375000000000000   1.0000000
N2   N   0.221587190656470   0.277460261994903   0.375000000000000   1.0000000
N2   N   0.722389103857857   0.777772362327525   0.375000000000000   1.0000000
N2   N   0.555984516410215   0.279151238700114   0.375000000000000   1.0000000
N2   N   0.888676835577522   0.277769389560075   0.375000000000000   1.0000000
N2   N   0.055557405269426   0.444453996814448   0.875000000000000   1.0000000
N2   N   0.222215077796203   0.944433552497441   0.875000000000000   1.0000000
N2   N   0.555550354383407   0.944441843858368   0.875000000000000   1.0000000
N2   N   0.388888922254613   0.444445147983306   0.875000000000000   1.0000000
N2   N   0.888899295941369   0.944443234470489   0.875000000000000   1.0000000
N2   N   0.054761065204639   0.943427281689302   0.375000000000000   1.0000000
N2   N   0.722232877691617   0.444453211637669   0.875000000000000   1.0000000
N2   N   0.388620615687065   0.943622087069962   0.375000000000000   1.0000000
N2   N   0.220254653492516   0.444926070934142   0.375000000000000   1.0000000
N2   N   0.221506608315722   0.611597336201393   0.375000000000000   1.0000000
N2   N   0.722206074143943   0.944412765843535   0.375000000000000   1.0000000
N2   N   0.889137226652261   0.444624738054446   0.375000000000000   1.0000000
N2   N   0.055555144053703   0.611114666120576   0.875000000000000   1.0000000
N2   N   0.222220462116114   0.111102680770436   0.875000000000000   1.0000000
N2   N   0.722232877691617   0.611112999387284   0.875000000000000   1.0000000
N2   N   0.555552871099014   0.111112897506452   0.875000000000000   1.0000000
N2   N   0.888897429888609   0.111115381610976   0.875000000000000   1.0000000
B2   B   0.111153627827018   0.055189822216714   0.375000000000000   1.0000000
B2   B   0.611670733433527   0.554552783787189   0.375000000000000   1.0000000
B2   B   0.443853886803834   0.055077161785509   0.375000000000000   1.0000000
B2   B   0.944550330001015   0.555602070882286   0.375000000000000   1.0000000
B2   B   0.777796377995130   0.055564855664233   0.375000000000000   1.0000000
B2   B   0.111124915513021   0.722229124423175   0.875000000000000   1.0000000
B2   B   0.444404995257906   0.722132887439549   0.875000000000000   1.0000000
B2   B   0.277847487336541   0.222294000165503   0.875000000000000   1.0000000
B2   B   0.777745723559021   0.722179145560688   0.875000000000000   1.0000000
B2   B   0.611050400480564   0.222261062862999   0.875000000000000   1.0000000
B2   B   0.944526003113450   0.222262957845253   0.875000000000000   1.0000000
B2   B   0.277501468756662   0.722173699957712   0.375000000000000   1.0000000
B2   B   0.112995249588114   0.223164291460722   0.375000000000000   1.0000000
B2   B   0.440613859096631   0.222514230419147   0.375000000000000   1.0000000
B2   B   0.610341415560995   0.720125027169917   0.375000000000000   1.0000000
B2   B   0.944550330001015   0.722281592452064   0.375000000000000   1.0000000
B2   B   0.777626940900201   0.222370727025398   0.375000000000000   1.0000000
B2   B   0.111146429757124   0.888932059760179   0.875000000000000   1.0000000
B2   B   0.444411772442131   0.888872552887730   0.875000000000000   1.0000000
B2   B   0.277847487336541   0.388886820504367   0.875000000000000   1.0000000
B2   B   0.611021323658559   0.388882582615592   0.875000000000000   1.0000000
B2   B   0.777782103493209   0.888864394604057   0.875000000000000   1.0000000
B2   B   0.944483982484833   0.388908995261419   0.875000000000000   1.0000000
B2   B   0.111153627827018   0.389297138943632   0.375000000000000   1.0000000
B2   B   0.277501468756662   0.888661102132279   0.375000000000000   1.0000000
B2   B   0.610844500680849   0.888285066547779   0.375000000000000   1.0000000
B2   B   0.944413586661895   0.888790692821708   0.375000000000000   1.0000000
B2   B   0.778125853206531   0.388950377499543   0.375000000000000   1.0000000
B2   B   0.277801325229365   0.555502308348787   0.875000000000000   1.0000000
B2   B   0.111200687418852   0.055628285910926   0.875000000000000   1.0000000
B2   B   0.611021323658559   0.555472074376295   0.875000000000000   1.0000000
B2   B   0.444404995257906   0.055605441151693   0.875000000000000   1.0000000
B2   B   0.944447632054963   0.555557046491510   0.875000000000000   1.0000000
B2   B   0.110942871640295   0.555626451401261   0.375000000000000   1.0000000
B2   B   0.777797507499612   0.055565420416474   0.875000000000000   1.0000000
B2   B   0.277543489876352   0.055394241842333   0.375000000000000   1.0000000
B2   B   0.440613859096631   0.551432962010819   0.375000000000000   1.0000000
B2   B   0.778345353429016   0.555839343381175   0.375000000000000   1.0000000
B2   B   0.610844500680849   0.055892767466399   0.375000000000000   1.0000000
B2   B   0.444390463330306   0.555439560746534   0.875000000000000   1.0000000
B2   B   0.944895381496773   0.055771779862750   0.375000000000000   1.0000000
B2   B   0.277776976177323   0.722193725962404   0.875000000000000   1.0000000
B2   B   0.111234746664456   0.222284039998892   0.875000000000000   1.0000000
B2   B   0.444390463330306   0.222284235917108   0.875000000000000   1.0000000
B2   B   0.611050400480564   0.722122670950894   0.875000000000000   1.0000000
B2   B   0.944447632054963   0.722223918896789   0.875000000000000   1.0000000
B2   B   0.777782103493209   0.222251042222481   0.875000000000000   1.0000000
B2   B   0.110954073633350   0.722143703483340   0.375000000000000   1.0000000
B2   B   0.443853886803834   0.722110058351661   0.375000000000000   1.0000000
B2   B   0.281500161294905   0.223478262226946   0.375000000000000   1.0000000
B2   B   0.778125853206531   0.722508809040317   0.375000000000000   1.0000000
B2   B   0.610341415560995   0.223549721724406   0.375000000000000   1.0000000
B2   B   0.944895381496773   0.222456934967358   0.375000000000000   1.0000000
B2   B   0.111200687418852   0.388905734841254   0.875000000000000   1.0000000
B2   B   0.277776976177323   0.888916583548247   0.875000000000000   1.0000000
B2   B   0.611077121596697   0.888841276080546   0.875000000000000   1.0000000
B2   B   0.444383383011426   0.388858358172378   0.875000000000000   1.0000000
B2   B   0.944483982484833   0.888908320556742   0.875000000000000   1.0000000
B2   B   0.110942871640295   0.888649753572361   0.375000000000000   1.0000000
B2   B   0.777745723559021   0.388899911331661   0.875000000000000   1.0000000
B2   B   0.444234520469154   0.888783926901242   0.375000000000000   1.0000000
B2   B   0.281500161294905   0.391355232401288   0.375000000000000   1.0000000
B2   B   0.277543489876352   0.555482581367354   0.375000000000000   1.0000000
B2   B   0.611670733433527   0.390451282979666   0.375000000000000   1.0000000
B2   B   0.777626940900201   0.888589547208131   0.375000000000000   1.0000000
B2   B   0.944413586661895   0.388956227173517   0.375000000000000   1.0000000
B2   B   0.111146429757124   0.555547703330274   0.875000000000000   1.0000000
B2   B   0.277801325229365   0.055632350213914   0.875000000000000   1.0000000
B2   B   0.777729114415290   0.555531223874312   0.875000000000000   1.0000000
B2   B   0.611077121596697   0.055569178849479   0.875000000000000   1.0000000
B2   B   0.944526003113450   0.055596378601532   0.875000000000000   1.0000000
B2   B   0.055729161885717   0.111286385854081   0.125365131471833   1.0000000
B2   B   0.555246973735519   0.610854981666951   0.125910973487470   1.0000000
B2   B   0.388981349182000   0.111436257286050   0.125734187573934   1.0000000
B2   B   0.888769156203769   0.611051244768557   0.125154156981563   1.0000000
B2   B   0.722181542819374   0.111095723963359   0.125195490014724   1.0000000
B2   B   0.055612060747590   0.777877252852346   0.624812181080749   1.0000000
B2   B   0.388978400699520   0.777721752046189   0.624734311296568   1.0000000
B2   B   0.222515806568727   0.277924569951031   0.623710914662125   1.0000000
B2   B   0.722054467808892   0.777681908007061   0.624751958461649   1.0000000
B2   B   0.555246973735519   0.277725325401903   0.624089026512529   1.0000000
B2   B   0.888897069284245   0.277726767398836   0.624789725943773   1.0000000
B2   B   0.222347336122747   0.777840334728042   0.125217190423719   1.0000000
B2   B   0.055729161885717   0.277776109364972   0.125365131471833   1.0000000
B2   B   0.388961480421037   0.278057390200250   0.127778115226371   1.0000000
B2   B   0.555494339104439   0.777656217657057   0.125303665022490   1.0000000
B2   B   0.888806908847445   0.777789038729103   0.125169087700238   1.0000000
B2   B   0.722054467808892   0.277705893135167   0.125248041538351   1.0000000
B2   B   0.055674224135774   0.944662751520431   0.624748673630038   1.0000000
B2   B   0.388978400699520   0.944589981986668   0.624734311296568   1.0000000
B2   B   0.222469739255092   0.444280342188443   0.624156555029175   1.0000000
B2   B   0.554960618386769   0.444146975860049   0.623817550931576   1.0000000
B2   B   0.722181542819374   0.944419152189350   0.624804509985277   1.0000000
B2   B   0.888806908847445   0.444351203451677   0.624830912299762   1.0000000
B2   B   0.055674224135774   0.444344805948672   0.125251326369962   1.0000000
B2   B   0.222382694781119   0.944728871065002   0.125309791203307   1.0000000
B2   B   0.555557819420079   0.944445576376703   0.125219412821671   1.0000000
B2   B   0.388961480421037   0.444237423554122   0.127778115226371   1.0000000
B2   B   0.888897069284245   0.944503635218744   0.125210274056227   1.0000000
B2   B   0.721910278092719   0.444298663387439   0.125398894210376   1.0000000
B2   B   0.222382694781119   0.610987157049453   0.624690208796694   1.0000000
B2   B   0.055729161885717   0.111286385854081   0.624634868528167   1.0000000
B2   B   0.555246973735519   0.610854981666951   0.624089026512529   1.0000000
B2   B   0.388981349182000   0.111436257286050   0.624265812426066   1.0000000
B2   B   0.888769156203769   0.611051244768557   0.624845843018437   1.0000000
B2   B   0.055612060747590   0.611068141228580   0.125187818919251   1.0000000
B2   B   0.722181542819374   0.111095723963359   0.624804509985277   1.0000000
B2   B   0.222469739255092   0.111522730399984   0.125843444970825   1.0000000
B2   B   0.388981349182000   0.610878425229292   0.125734187573934   1.0000000
B2   B   0.721910278092719   0.610944948038616   0.125398894210376   1.0000000
B2   B   0.555494339104439   0.111171454780718   0.125303665022490   1.0000000
B2   B   0.388981349182000   0.610878425229292   0.624265812426066   1.0000000
B2   B   0.888939282853136   0.111136308093240   0.125219174750005   1.0000000
B2   B   0.222347336122747   0.777840334728042   0.624782809576281   1.0000000
B2   B   0.055729161885717   0.277776109364972   0.624634868528167   1.0000000
B2   B   0.388961480421037   0.278057390200250   0.622221884773629   1.0000000
B2   B   0.555494339104439   0.777656217657057   0.624696334977510   1.0000000
B2   B   0.888806908847445   0.777789038729103   0.624830912299762   1.0000000
B2   B   0.722054467808892   0.277705893135167   0.624751958461649   1.0000000
B2   B   0.055612060747590   0.777877252852346   0.125187818919251   1.0000000
B2   B   0.388978400699520   0.777721752046189   0.125265688703432   1.0000000
B2   B   0.222515806568727   0.277924569951031   0.126289085337876   1.0000000
B2   B   0.722054467808892   0.777681908007061   0.125248041538351   1.0000000
B2   B   0.555246973735519   0.277725325401903   0.125910973487470   1.0000000
B2   B   0.888897069284245   0.277726767398836   0.125210274056227   1.0000000
B2   B   0.055674224135774   0.444344805948672   0.624748673630038   1.0000000
B2   B   0.222382694781119   0.944728871065002   0.624690208796694   1.0000000
B2   B   0.555557819420079   0.944445576376703   0.624780587178328   1.0000000
B2   B   0.388961480421037   0.444237423554122   0.622221884773629   1.0000000
B2   B   0.888897069284245   0.944503635218744   0.624789725943773   1.0000000
B2   B   0.055674224135774   0.944662751520431   0.125251326369962   1.0000000
B2   B   0.721910278092719   0.444298663387439   0.624601105789624   1.0000000
B2   B   0.388978400699520   0.944589981986668   0.125265688703432   1.0000000
B2   B   0.222469739255092   0.444280342188443   0.125843444970825   1.0000000
B2   B   0.222382694781119   0.610987157049453   0.125309791203307   1.0000000
B2   B   0.554960618386769   0.444146975860049   0.126182449068424   1.0000000
B2   B   0.722181542819374   0.944419152189350   0.125195490014724   1.0000000
B2   B   0.888806908847445   0.444351203451677   0.125169087700238   1.0000000
B2   B   0.055612060747590   0.611068141228580   0.624812181080749   1.0000000
B2   B   0.222469739255092   0.111522730399984   0.624156555029175   1.0000000
B2   B   0.721910278092719   0.610944948038616   0.624601105789624   1.0000000
B2   B   0.555494339104439   0.111171454780718   0.624696334977510   1.0000000
B2   B   0.888939282853136   0.111136308093240   0.624780825249995   1.0000000


