data_1
_audit_creation_method   'vasp2cif'
_cell_length_a    14.93631414619966
_cell_length_b    14.936314146199727
_cell_length_c    13.341276283792837
_cell_angle_alpha    90.0
_cell_angle_beta    90.0
_cell_angle_gamma    119.99999999999984

_symmetry_space_group_name_H-M    'P 1'
loop_
_atom_site_label
_atom_site_type_symbol
_atom_site_fract_x
_atom_site_fract_y
_atom_site_fract_z
_atom_site_occupancy
C2   C   0.619450804902544   0.391389540164661   0.375000000000000   1.0000000
O2   O   0.432385350809950   0.383770928203853   0.375000000000000   1.0000000
N2   N   0.580478087923436   0.451380203372328   0.375000000000000   1.0000000
N2   N   0.111096297077436   0.055546881271795   0.125140679075687   1.0000000
N2   N   0.611092897627402   0.555531041158349   0.125528109306442   1.0000000
N2   N   0.444430979216820   0.055553503054659   0.125233714578246   1.0000000
N2   N   0.944452146856008   0.555551083882672   0.125186796876016   1.0000000
N2   N   0.777739509949288   0.055531699594429   0.125110185396826   1.0000000
N2   N   0.111114238283904   0.722215710269573   0.624885481921725   1.0000000
N2   N   0.444420434050302   0.722201554453290   0.624845312261690   1.0000000
N2   N   0.277751371784092   0.222226497996638   0.624678266133160   1.0000000
N2   N   0.777762811054452   0.722199472306414   0.624814852424669   1.0000000
N2   N   0.611101712641719   0.222217432896636   0.624620356262234   1.0000000
N2   N   0.944408404367108   0.222204904519866   0.624901688372501   1.0000000
N2   N   0.277768160238720   0.722212217729823   0.125112638351541   1.0000000
N2   N   0.111059395671937   0.222195658469876   0.125079247519751   1.0000000
N2   N   0.444462014184220   0.222245777301631   0.125556766503232   1.0000000
N2   N   0.611085374428316   0.722199097134693   0.125200814125814   1.0000000
N2   N   0.944447320418823   0.722210436702314   0.125162479806756   1.0000000
N2   N   0.777756971418942   0.222208589678550   0.125164125918330   1.0000000
N2   N   0.111112245323764   0.888884381228844   0.624881872447901   1.0000000
N2   N   0.444420524467011   0.888875353148164   0.624869247978904   1.0000000
N2   N   0.277741850147885   0.388859840816764   0.624731950770225   1.0000000
N2   N   0.611106834309698   0.388879740410685   0.624484481875549   1.0000000
N2   N   0.777751035240188   0.888865926239620   0.624880411858695   1.0000000
N2   N   0.944438983092301   0.388887454534925   0.624848968080378   1.0000000
N2   N   0.111090090085057   0.388878262468819   0.125129903333403   1.0000000
N2   N   0.277773426336755   0.888883619317433   0.125119639066720   1.0000000
N2   N   0.611074707990906   0.888867091274712   0.125129285270836   1.0000000
N2   N   0.444423623459900   0.388882460518579   0.125172729638213   1.0000000
N2   N   0.944434591152681   0.888873756119076   0.125120404689133   1.0000000
N2   N   0.777772041632565   0.388882708667990   0.125350244865443   1.0000000
N2   N   0.277765010150703   0.555541978080836   0.624850368280144   1.0000000
N2   N   0.111096297077436   0.055546881271795   0.624859320924313   1.0000000
N2   N   0.611092897627402   0.555531041158349   0.624471890693558   1.0000000
N2   N   0.444430979216820   0.055553503054659   0.624766285421754   1.0000000
N2   N   0.944452146856008   0.555551083882672   0.624813203123984   1.0000000
N2   N   0.111109527735889   0.555551113633766   0.125120720926226   1.0000000
N2   N   0.777739509949288   0.055531699594429   0.624889814603174   1.0000000
N2   N   0.277779679855847   0.055561788256814   0.125205161363072   1.0000000
N2   N   0.444436546243848   0.555540343777000   0.125320283037754   1.0000000
N2   N   0.777769626521974   0.555533415585793   0.125407810097403   1.0000000
N2   N   0.611077145840279   0.055535692385800   0.125166351530928   1.0000000
N2   N   0.444436546243848   0.555540343777000   0.624679716962247   1.0000000
N2   N   0.944408748304733   0.055529005137643   0.125100430970091   1.0000000
N2   N   0.277768160238720   0.722212217729823   0.624887361648458   1.0000000
N2   N   0.111059395671937   0.222195658469876   0.624920752480248   1.0000000
N2   N   0.444462014184220   0.222245777301631   0.624443233496768   1.0000000
N2   N   0.611085374428316   0.722199097134693   0.624799185874185   1.0000000
N2   N   0.944447320418823   0.722210436702314   0.624837520193243   1.0000000
N2   N   0.777756971418942   0.222208589678550   0.624835874081671   1.0000000
N2   N   0.111114238283904   0.722215710269573   0.125114518078275   1.0000000
N2   N   0.444420434050302   0.722201554453290   0.125154687738311   1.0000000
N2   N   0.277751371784092   0.222226497996638   0.125321733866839   1.0000000
N2   N   0.777762811054452   0.722199472306414   0.125185147575332   1.0000000
N2   N   0.611101712641719   0.222217432896636   0.125379643737766   1.0000000
N2   N   0.944408404367108   0.222204904519866   0.125098311627498   1.0000000
N2   N   0.111090090085057   0.388878262468819   0.624870096666596   1.0000000
N2   N   0.277773426336755   0.888883619317433   0.624880360933280   1.0000000
N2   N   0.611074707990906   0.888867091274712   0.624870714729164   1.0000000
N2   N   0.444423623459900   0.388882460518579   0.624827270361787   1.0000000
N2   N   0.944434591152681   0.888873756119076   0.624879595310866   1.0000000
N2   N   0.111112245323764   0.888884381228844   0.125118127552099   1.0000000
N2   N   0.777772041632565   0.388882708667990   0.624649755134557   1.0000000
N2   N   0.444420524467011   0.888875353148164   0.125130752021096   1.0000000
N2   N   0.277741850147885   0.388859840816764   0.125268049229774   1.0000000
N2   N   0.277765010150703   0.555541978080836   0.125149631719857   1.0000000
N2   N   0.611106834309698   0.388879740410685   0.125515518124452   1.0000000
N2   N   0.777751035240188   0.888865926239620   0.125119588141305   1.0000000
N2   N   0.944438983092301   0.388887454534925   0.125151031919623   1.0000000
N2   N   0.111109527735889   0.555551113633766   0.624879279073773   1.0000000
N2   N   0.277779679855847   0.055561788256814   0.624794838636928   1.0000000
N2   N   0.777769626521974   0.555533415585793   0.624592189902597   1.0000000
N2   N   0.611077145840279   0.055535692385800   0.624833648469071   1.0000000
N2   N   0.944408748304733   0.055529005137643   0.624899569029910   1.0000000
N2   N   0.052992036096034   0.109450989368073   0.375000000000000   1.0000000
N2   N   0.555360793458822   0.606914481399888   0.375000000000000   1.0000000
N2   N   0.390692843536351   0.116567011878186   0.375000000000000   1.0000000
N2   N   0.890786888328314   0.611466013730705   0.375000000000000   1.0000000
N2   N   0.721245162582021   0.110559205474670   0.375000000000000   1.0000000
N2   N   0.055548734212955   0.777775670376140   0.875000000000000   1.0000000
N2   N   0.388889008137770   0.777778688707874   0.875000000000000   1.0000000
N2   N   0.222215989074151   0.277771958260013   0.875000000000000   1.0000000
N2   N   0.722222023569323   0.777776997298856   0.875000000000000   1.0000000
N2   N   0.555552110775920   0.277775813384438   0.875000000000000   1.0000000
N2   N   0.888885945845367   0.277776003498855   0.875000000000000   1.0000000
N2   N   0.223464909707157   0.778880505714977   0.375000000000000   1.0000000
N2   N   0.052956824670383   0.276692548967866   0.375000000000000   1.0000000
N2   N   0.381377625101406   0.275517541478107   0.375000000000000   1.0000000
N2   N   0.555073222298785   0.775842020973304   0.375000000000000   1.0000000
N2   N   0.890644782951824   0.778694794867162   0.375000000000000   1.0000000
N2   N   0.722708079841410   0.277793242439817   0.375000000000000   1.0000000
N2   N   0.055549656491857   0.944444104594516   0.875000000000000   1.0000000
N2   N   0.388890236657412   0.944448029428717   0.875000000000000   1.0000000
N2   N   0.222217187748982   0.444438558002123   0.875000000000000   1.0000000
N2   N   0.555552017698653   0.444441150393599   0.875000000000000   1.0000000
N2   N   0.722222065863691   0.944443829365446   0.875000000000000   1.0000000
N2   N   0.888882654095782   0.444439992283429   0.875000000000000   1.0000000
N2   N   0.055022855476489   0.444385713408467   0.375000000000000   1.0000000
N2   N   0.223571202629898   0.946323712126304   0.375000000000000   1.0000000
N2   N   0.555259007334179   0.944577534761999   0.375000000000000   1.0000000
N2   N   0.380120374978631   0.440151628591596   0.375000000000000   1.0000000
N2   N   0.887640798360088   0.943269948397966   0.375000000000000   1.0000000
N2   N   0.724333105672065   0.443247536535850   0.375000000000000   1.0000000
N2   N   0.222215198983919   0.611105723628578   0.875000000000000   1.0000000
N2   N   0.055549202575085   0.111104989734058   0.875000000000000   1.0000000
N2   N   0.555553897517645   0.611104573564985   0.875000000000000   1.0000000
N2   N   0.388887271084448   0.111111511896121   0.875000000000000   1.0000000
N2   N   0.888881878542888   0.611106110017733   0.875000000000000   1.0000000
N2   N   0.056840389899217   0.611779601827559   0.375000000000000   1.0000000
N2   N   0.722219995669390   0.111109590241219   0.875000000000000   1.0000000
N2   N   0.220511591067316   0.110493687718844   0.375000000000000   1.0000000
N2   N   0.388570869775061   0.608348212666783   0.375000000000000   1.0000000
N2   N   0.727222127287577   0.613794870416836   0.375000000000000   1.0000000
N2   N   0.555826204087608   0.113708291976439   0.375000000000000   1.0000000
N2   N   0.388887990489126   0.611105036985368   0.875000000000000   1.0000000
N2   N   0.887062431342183   0.109931544617030   0.375000000000000   1.0000000
N2   N   0.222217400985442   0.777776514112794   0.875000000000000   1.0000000
N2   N   0.055549798150763   0.277772660186089   0.875000000000000   1.0000000
N2   N   0.388884604920529   0.277773979887472   0.875000000000000   1.0000000
N2   N   0.555555888289383   0.777775991855690   0.875000000000000   1.0000000
N2   N   0.888885970717628   0.777778598925890   0.875000000000000   1.0000000
N2   N   0.722218730259585   0.277775425535673   0.875000000000000   1.0000000
N2   N   0.057015267929707   0.778725149777192   0.375000000000000   1.0000000
N2   N   0.389360850439474   0.777544476260397   0.375000000000000   1.0000000
N2   N   0.216918889017691   0.275240954666829   0.375000000000000   1.0000000
N2   N   0.721709368936639   0.776463016458909   0.375000000000000   1.0000000
N2   N   0.559999863339028   0.285774476872525   0.375000000000000   1.0000000
N2   N   0.887964369400598   0.277314390500379   0.375000000000000   1.0000000
N2   N   0.055547589150017   0.444439417989625   0.875000000000000   1.0000000
N2   N   0.222217767592829   0.944444897512131   0.875000000000000   1.0000000
N2   N   0.555555316530059   0.944446965409969   0.875000000000000   1.0000000
N2   N   0.388886743566680   0.444439375348766   0.875000000000000   1.0000000
N2   N   0.888888925948261   0.944444330987878   0.875000000000000   1.0000000
N2   N   0.055556022960366   0.944475860726786   0.375000000000000   1.0000000
N2   N   0.722216350320577   0.444440526523743   0.875000000000000   1.0000000
N2   N   0.389810758752597   0.946693345859019   0.375000000000000   1.0000000
N2   N   0.219656836211491   0.443605913864718   0.375000000000000   1.0000000
N2   N   0.222716628185642   0.611188998009237   0.375000000000000   1.0000000
N2   N   0.721015642344542   0.943238765659375   0.375000000000000   1.0000000
N2   N   0.889954746968526   0.444782381067524   0.375000000000000   1.0000000
N2   N   0.055545867734532   0.611103949661615   0.875000000000000   1.0000000
N2   N   0.222214823346088   0.111107699783379   0.875000000000000   1.0000000
N2   N   0.722216527139137   0.611106582902657   0.875000000000000   1.0000000
N2   N   0.555554071114196   0.111111034798613   0.875000000000000   1.0000000
N2   N   0.888887380860952   0.111107267037123   0.875000000000000   1.0000000
B2   B   0.109318711351214   0.054801627584967   0.375000000000000   1.0000000
B2   B   0.617905645410212   0.559489806548207   0.375000000000000   1.0000000
B2   B   0.444698699591958   0.058189902130063   0.375000000000000   1.0000000
B2   B   0.946483442251394   0.556160456242682   0.375000000000000   1.0000000
B2   B   0.776322337767253   0.054294400422861   0.375000000000000   1.0000000
B2   B   0.111116097036166   0.722226731605499   0.875000000000000   1.0000000
B2   B   0.444439452605341   0.722224810420945   0.875000000000000   1.0000000
B2   B   0.277742050841689   0.222205350765273   0.875000000000000   1.0000000
B2   B   0.777791011641519   0.722254621003583   0.875000000000000   1.0000000
B2   B   0.611109023274001   0.222196973090839   0.875000000000000   1.0000000
B2   B   0.944448678993887   0.222208073847356   0.875000000000000   1.0000000
B2   B   0.278354500806099   0.722508332418541   0.375000000000000   1.0000000
B2   B   0.106604713976229   0.219899598575296   0.375000000000000   1.0000000
B2   B   0.444810056544646   0.228175726637730   0.375000000000000   1.0000000
B2   B   0.610460827778163   0.720035210693516   0.375000000000000   1.0000000
B2   B   0.946338658330344   0.723340641995108   0.375000000000000   1.0000000
B2   B   0.777568300810518   0.221103532560158   0.375000000000000   1.0000000
B2   B   0.111103097292766   0.888891401131650   0.875000000000000   1.0000000
B2   B   0.444441225824744   0.888878659246368   0.875000000000000   1.0000000
B2   B   0.277754603532582   0.388880580613811   0.875000000000000   1.0000000
B2   B   0.611098934805735   0.388889058927051   0.875000000000000   1.0000000
B2   B   0.777787634567797   0.888905367402951   0.875000000000000   1.0000000
B2   B   0.944460651988433   0.388879892282187   0.875000000000000   1.0000000
B2   B   0.108873551385587   0.387801302363184   0.375000000000000   1.0000000
B2   B   0.278658671641121   0.890205112880034   0.375000000000000   1.0000000
B2   B   0.610162254997765   0.887737680173229   0.375000000000000   1.0000000
B2   B   0.944848951101178   0.889436077181529   0.375000000000000   1.0000000
B2   B   0.780590073226869   0.387547332894426   0.375000000000000   1.0000000
B2   B   0.277767707346561   0.555553177259413   0.875000000000000   1.0000000
B2   B   0.111088684840929   0.055547020415488   0.875000000000000   1.0000000
B2   B   0.611103499236284   0.555571705463593   0.875000000000000   1.0000000
B2   B   0.444428786747876   0.055530262739849   0.875000000000000   1.0000000
B2   B   0.944464702282569   0.555564560949708   0.875000000000000   1.0000000
B2   B   0.111751204317123   0.555681443089509   0.375000000000000   1.0000000
B2   B   0.777787706677519   0.055546600906478   0.875000000000000   1.0000000
B2   B   0.278279386157360   0.057440436487045   0.375000000000000   1.0000000
B2   B   0.443585578688201   0.551751628902784   0.375000000000000   1.0000000
B2   B   0.781280271184076   0.557588545828527   0.375000000000000   1.0000000
B2   B   0.610511424311232   0.055867618784868   0.375000000000000   1.0000000
B2   B   0.444427833356935   0.555557373493017   0.875000000000000   1.0000000
B2   B   0.942239684392462   0.054083262478709   0.375000000000000   1.0000000
B2   B   0.277774691539438   0.722219584326045   0.875000000000000   1.0000000
B2   B   0.111091079237678   0.222208528345888   0.875000000000000   1.0000000
B2   B   0.444410099475354   0.222200090400223   0.875000000000000   1.0000000
B2   B   0.611112718438629   0.722239207054456   0.875000000000000   1.0000000
B2   B   0.944458852465649   0.722246395994246   0.875000000000000   1.0000000
B2   B   0.777794221537381   0.222202207948697   0.875000000000000   1.0000000
B2   B   0.112544857339296   0.723151566180356   0.375000000000000   1.0000000
B2   B   0.444009673495919   0.720520426709066   0.375000000000000   1.0000000
B2   B   0.271327506351166   0.220023572799824   0.375000000000000   1.0000000
B2   B   0.780697394132069   0.724791747049127   0.375000000000000   1.0000000
B2   B   0.612766560830373   0.224103784631937   0.375000000000000   1.0000000
B2   B   0.942448450864547   0.220904085017206   0.375000000000000   1.0000000
B2   B   0.111104504681698   0.388878449058319   0.875000000000000   1.0000000
B2   B   0.277767405284377   0.888878554685853   0.875000000000000   1.0000000
B2   B   0.611115372446714   0.888889899397397   0.875000000000000   1.0000000
B2   B   0.444413585273824   0.388883558931550   0.875000000000000   1.0000000
B2   B   0.944448180017762   0.888906501191492   0.875000000000000   1.0000000
B2   B   0.112165978709638   0.889985844570169   0.375000000000000   1.0000000
B2   B   0.777796894357604   0.388882703370357   0.875000000000000   1.0000000
B2   B   0.444398124477083   0.889294592736466   0.375000000000000   1.0000000
B2   B   0.270757616849162   0.385076188018515   0.375000000000000   1.0000000
B2   B   0.277159508559597   0.554692986772690   0.375000000000000   1.0000000
B2   B   0.776678071571833   0.887876502659251   0.375000000000000   1.0000000
B2   B   0.944622537569492   0.388377602102775   0.375000000000000   1.0000000
B2   B   0.111116125103783   0.555553309406591   0.875000000000000   1.0000000
B2   B   0.277748675348204   0.055536724498927   0.875000000000000   1.0000000
B2   B   0.777794470389602   0.555580607442593   0.875000000000000   1.0000000
B2   B   0.611115730202004   0.055535520529688   0.875000000000000   1.0000000
B2   B   0.944441978518168   0.055553177804771   0.875000000000000   1.0000000
B2   B   0.055497337241998   0.111079728810216   0.124870527860579   1.0000000
B2   B   0.555488970565838   0.611154166778487   0.124918579658207   1.0000000
B2   B   0.388810339451163   0.111009023662772   0.124933897570951   1.0000000
B2   B   0.889018875814216   0.611186386034659   0.124843049449080   1.0000000
B2   B   0.722202347918185   0.111035718513595   0.124865993834326   1.0000000
B2   B   0.055616009612492   0.777798073390849   0.625110631393865   1.0000000
B2   B   0.388849846115861   0.777753212863290   0.625081970651122   1.0000000
B2   B   0.222123969684824   0.277757239773212   0.625138891759272   1.0000000
B2   B   0.722206609339790   0.777822532971481   0.625142634763890   1.0000000
B2   B   0.555512429823528   0.277711404502980   0.625321488869743   1.0000000
B2   B   0.888926016995812   0.277759308080874   0.625141071685891   1.0000000
B2   B   0.222232953746855   0.777760728869248   0.124908235484838   1.0000000
B2   B   0.055518914843035   0.277763992888175   0.124863570740032   1.0000000
B2   B   0.388803775791038   0.277804252980834   0.124968647515832   1.0000000
B2   B   0.555503163327440   0.777783930197566   0.124899963466470   1.0000000
B2   B   0.888939248734365   0.777826873508466   0.124850561150454   1.0000000
B2   B   0.722267282637906   0.277708670572018   0.124778712787400   1.0000000
B2   B   0.055550066405213   0.944429545405546   0.625108276400107   1.0000000
B2   B   0.388834949011901   0.944353311197855   0.625098341830143   1.0000000
B2   B   0.222182135291570   0.444454035677003   0.625088618374502   1.0000000
B2   B   0.555413225577582   0.444427493833038   0.625122888952254   1.0000000
B2   B   0.722186018585832   0.944420933466133   0.625102457179750   1.0000000
B2   B   0.889017453333025   0.444482266805862   0.625172624590171   1.0000000
B2   B   0.055601417282782   0.444469643925235   0.124884240259846   1.0000000
B2   B   0.222198264592208   0.944390705576322   0.124893923782866   1.0000000
B2   B   0.555500718438495   0.944373026658643   0.124904393554880   1.0000000
B2   B   0.388819596039955   0.444433094056563   0.124979480717267   1.0000000
B2   B   0.888874156439371   0.944443979211197   0.124896357019633   1.0000000
B2   B   0.722275830059577   0.444462701270489   0.124592819364711   1.0000000
B2   B   0.222230443101311   0.611126664193825   0.625094198135540   1.0000000
B2   B   0.055497337241998   0.111079728810216   0.625129472139421   1.0000000
B2   B   0.555488970565838   0.611154166778487   0.625081420341793   1.0000000
B2   B   0.388810339451163   0.111009023662772   0.625066102429049   1.0000000
B2   B   0.889018875814216   0.611186386034659   0.625156950550920   1.0000000
B2   B   0.055647939482878   0.611152377139333   0.124883191879433   1.0000000
B2   B   0.722202347918185   0.111035718513595   0.625134006165673   1.0000000
B2   B   0.222152226890729   0.111064178827533   0.124904223533497   1.0000000
B2   B   0.388838410319304   0.611125812422802   0.124932901386953   1.0000000
B2   B   0.722241947516734   0.611189029303941   0.124818681139452   1.0000000
B2   B   0.555500106348839   0.110976287465525   0.124866021780736   1.0000000
B2   B   0.388838410319304   0.611125812422802   0.625067098613047   1.0000000
B2   B   0.888863911352650   0.111079974642041   0.124890543386371   1.0000000
B2   B   0.222232953746855   0.777760728869248   0.625091764515163   1.0000000
B2   B   0.055518914843035   0.277763992888175   0.625136429259969   1.0000000
B2   B   0.388803775791038   0.277804252980834   0.625031352484168   1.0000000
B2   B   0.555503163327440   0.777783930197566   0.625100036533530   1.0000000
B2   B   0.888939248734365   0.777826873508466   0.625149438849545   1.0000000
B2   B   0.722267282637906   0.277708670572018   0.625221287212600   1.0000000
B2   B   0.055616009612492   0.777798073390849   0.124889368606135   1.0000000
B2   B   0.388849846115861   0.777753212863290   0.124918029348878   1.0000000
B2   B   0.222123969684824   0.277757239773212   0.124861108240728   1.0000000
B2   B   0.722206609339790   0.777822532971481   0.124857365236111   1.0000000
B2   B   0.555512429823528   0.277711404502980   0.124678511130258   1.0000000
B2   B   0.888926016995812   0.277759308080874   0.124858928314110   1.0000000
B2   B   0.055601417282782   0.444469643925235   0.625115759740155   1.0000000
B2   B   0.222198264592208   0.944390705576322   0.625106076217135   1.0000000
B2   B   0.555500718438495   0.944373026658643   0.625095606445121   1.0000000
B2   B   0.388819596039955   0.444433094056563   0.625020519282733   1.0000000
B2   B   0.888874156439371   0.944443979211197   0.625103642980368   1.0000000
B2   B   0.055550066405213   0.944429545405546   0.124891723599893   1.0000000
B2   B   0.722275830059577   0.444462701270489   0.625407180635289   1.0000000
B2   B   0.388834949011901   0.944353311197855   0.124901658169857   1.0000000
B2   B   0.222182135291570   0.444454035677003   0.124911381625499   1.0000000
B2   B   0.222230443101311   0.611126664193825   0.124905801864460   1.0000000
B2   B   0.555413225577582   0.444427493833038   0.124877111047746   1.0000000
B2   B   0.722186018585832   0.944420933466133   0.124897542820251   1.0000000
B2   B   0.889017453333025   0.444482266805862   0.124827375409828   1.0000000
B2   B   0.055647939482878   0.611152377139333   0.625116808120567   1.0000000
B2   B   0.222152226890729   0.111064178827533   0.625095776466505   1.0000000
B2   B   0.722241947516734   0.611189029303941   0.625181318860549   1.0000000
B2   B   0.555500106348839   0.110976287465525   0.625133978219264   1.0000000
B2   B   0.888863911352650   0.111079974642041   0.625109456613629   1.0000000


