data_1
_audit_creation_method   'vasp2cif'
_cell_length_a    17.52789999999977
_cell_length_b    17.52789999999977
_cell_length_c    15.0
_cell_angle_alpha    90.0
_cell_angle_beta    90.0
_cell_angle_gamma    119.99999999999916

_symmetry_space_group_name_H-M    'P 1'
loop_
_atom_site_label
_atom_site_type_symbol
_atom_site_fract_x
_atom_site_fract_y
_atom_site_fract_z
_atom_site_occupancy
B2   B   0.904601021224115   0.952281887962060   0.118562342080863   1.0000000
B2   B   0.904766363001508   0.095236823377970   0.118145256192734   1.0000000
B2   B   0.904770968783274   0.238091766221936   0.118151477620312   1.0000000
B2   B   0.904584864269921   0.380875640675473   0.118655003482518   1.0000000
B2   B   0.904539140869809   0.523655900835624   0.118204333009710   1.0000000
B2   B   0.904405938674060   0.666489044626923   0.116466373699310   1.0000000
B2   B   0.904556186569881   0.809454729091933   0.118104004898749   1.0000000
B2   B   0.047559670308323   0.952441720719064   0.119611245930602   1.0000000
B2   B   0.047721695410776   0.095402041766081   0.118576054482419   1.0000000
B2   B   0.047762738607603   0.238148531149082   0.117311167762085   1.0000000
B2   B   0.047715268630251   0.380875257876007   0.118633053085212   1.0000000
B2   B   0.047532164095531   0.523670585514434   0.119635672170048   1.0000000
B2   B   0.047468786177646   0.666547925496237   0.119291717394484   1.0000000
B2   B   0.047473281221499   0.809502016471339   0.119266832552285   1.0000000
B2   B   0.190500025521862   0.952528389973165   0.119266314033291   1.0000000
B2   B   0.190548910001875   0.095445201613190   0.118117506435640   1.0000000
B2   B   0.190908744473740   0.238501192623766   0.113635400134967   1.0000000
B2   B   0.190908613381413   0.380975372487993   0.113643364806994   1.0000000
B2   B   0.190531103464216   0.523658540510580   0.118112438168373   1.0000000
B2   B   0.190500408941738   0.666542590249605   0.119282251970971   1.0000000
B2   B   0.190473697659568   0.809526966393939   0.119051139704326   1.0000000
B2   B   0.333453109518210   0.952531974711868   0.119264705005421   1.0000000
B2   B   0.333513753893075   0.095597298436006   0.116448847082817   1.0000000
B2   B   0.333187462250605   0.238216059290832   0.107581408110572   1.0000000
B2   B   0.334014024749939   0.381296448284139   0.095816003923138   1.0000000
B2   B   0.333192169855503   0.523557900009162   0.107562458647570   1.0000000
B2   B   0.333513551381880   0.666486948271234   0.116450832840280   1.0000000
B2   B   0.333456635265857   0.809500065791571   0.119268828483571   1.0000000
B2   B   0.476330151471587   0.952467922641753   0.119594339219528   1.0000000
B2   B   0.476344760248956   0.095460803799700   0.118156225532509   1.0000000
B2   B   0.476418276129039   0.238202660752512   0.107585135271944   1.0000000
B2   B   0.470868683467610   0.370288251608408   0.059972084040242   1.0000000
B2   B   0.470866349993015   0.529136099223691   0.059958185803755   1.0000000
B2   B   0.476443120709307   0.666809214357421   0.107560998282146   1.0000000
B2   B   0.476341907243710   0.809469484816435   0.118094655703901   1.0000000
B2   B   0.619125332643948   0.952284938832132   0.118602262416269   1.0000000
B2   B   0.619124114421473   0.095415170516753   0.118612170165413   1.0000000
B2   B   0.619007861802676   0.238505112934117   0.113634567454307   1.0000000
B2   B   0.618716772885722   0.381284763527779   0.095843782890271   1.0000000
B2   B   0.629715743887691   0.529133691534861   0.059987298863508   1.0000000
B2   B   0.618704985277114   0.665988396433238   0.095819270319636   1.0000000
B2   B   0.619026637568081   0.809093954628586   0.113630738903600   1.0000000
B2   B   0.761854137118348   0.952239900674752   0.117293686624010   1.0000000
B2   B   0.761910234811875   0.095231277913648   0.118134616176280   1.0000000
B2   B   0.761835922065061   0.238165438539372   0.117287031792042   1.0000000
B2   B   0.761495291834008   0.380994067862168   0.113661438062930   1.0000000
B2   B   0.761797051947864   0.523582619619171   0.107615644259235   1.0000000
B2   B   0.761785676135336   0.666815313742447   0.107588961600384   1.0000000
B2   B   0.761500328842404   0.809094131246328   0.113621364842408   1.0000000
Sn2   Sn   0.523820565206740   0.476196681608342   0.954753668076013   1.0000000
N2   N   0.952389426809087   0.904863670071733   0.119363794645820   1.0000000
N2   N   0.952355763235179   0.047647626794896   0.118779616384629   1.0000000
N2   N   0.952373997354418   0.190464397677877   0.117987775970729   1.0000000
N2   N   0.952348035148292   0.333266497087000   0.118854750802996   1.0000000
N2   N   0.952368581613137   0.476079115232050   0.119462456485705   1.0000000
N2   N   0.952437430724402   0.619010162416467   0.118738773378928   1.0000000
N2   N   0.952448195141848   0.762000215656176   0.118686326215698   1.0000000
N2   N   0.095210830474792   0.904791080024902   0.119615845637657   1.0000000
N2   N   0.095139593560127   0.047613775546092   0.119379475297638   1.0000000
N2   N   0.095291646012882   0.190573658148245   0.117113119992678   1.0000000
N2   N   0.095285457168225   0.333267756133583   0.117148657246178   1.0000000
N2   N   0.095123848603919   0.476082503905894   0.119399063542390   1.0000000
N2   N   0.095201800095574   0.618982655834305   0.119622552425268   1.0000000
N2   N   0.095233436206938   0.761904894516347   0.119113285128199   1.0000000
N2   N   0.238095833043164   0.904766849950163   0.119102903562309   1.0000000
N2   N   0.238001918225997   0.047553776432789   0.118690790599111   1.0000000
N2   N   0.237767269826464   0.190244828773790   0.115134360176772   1.0000000
N2   N   0.238506954826229   0.333539431072389   0.108878583114389   1.0000000
N2   N   0.237761548458344   0.476093529082427   0.115114135109553   1.0000000
N2   N   0.237997629475079   0.619013099991544   0.118694685323889   1.0000000
N2   N   0.238094856523247   0.761904957684566   0.119112984918901   1.0000000
N2   N   0.381017749193511   0.904798126431481   0.119590802308507   1.0000000
N2   N   0.380990703254376   0.047561784021754   0.118701378863262   1.0000000
N2   N   0.380704297622032   0.190006154450578   0.110759234726972   1.0000000
N2   N   0.379609360009409   0.331358185222478   0.092198001013239   1.0000000
N2   N   0.379605952124374   0.476828179945844   0.092187640883390   1.0000000
N2   N   0.380714354519973   0.619286750136636   0.110745545487199   1.0000000
N2   N   0.380987704654997   0.762002860100621   0.118684515460672   1.0000000
N2   N   0.523918547884116   0.904877402558006   0.119366052096331   1.0000000
N2   N   0.523921025422317   0.047630555492380   0.119407618307794   1.0000000
N2   N   0.523897166831001   0.190251209419311   0.115143396469313   1.0000000
N2   N   0.523176939240385   0.331352094249672   0.092219744460188   1.0000000
N2   N   0.523173250445713   0.620395181245878   0.092190737951992   1.0000000
N2   N   0.523908290149572   0.762240201274213   0.115105762114965   1.0000000
N2   N   0.666734609610902   0.904717448340231   0.117127688847401   1.0000000
N2   N   0.666734644235452   0.047652953600084   0.118818645831067   1.0000000
N2   N   0.666721206791505   0.190584580837203   0.117115318752826   1.0000000
N2   N   0.666463777460355   0.333538480574398   0.108887023370815   1.0000000
N2   N   0.668649677062610   0.476825606808817   0.092238155928493   1.0000000
N2   N   0.668642657570181   0.620392024908739   0.092211375463043   1.0000000
N2   N   0.666463491570898   0.761496321401507   0.108870954327505   1.0000000
N2   N   0.809429370695285   0.904711830955602   0.117093356893848   1.0000000
N2   N   0.809538085587380   0.047628710608112   0.117976166023310   1.0000000
N2   N   0.809535921630149   0.190465152772903   0.117964200766475   1.0000000
N2   N   0.809415052706768   0.333280166984513   0.117145696599443   1.0000000
N2   N   0.809747976374760   0.476104369418384   0.115190024431061   1.0000000
N2   N   0.809994525602338   0.619297513706855   0.110781362416848   1.0000000
N2   N   0.809759271598049   0.762236821548773   0.115121504231982   1.0000000


