data_1
_audit_creation_method   'vasp2cif'
_cell_length_a    17.52789999999977
_cell_length_b    17.52789999999977
_cell_length_c    15.0
_cell_angle_alpha    90.0
_cell_angle_beta    90.0
_cell_angle_gamma    119.99999999999916

_symmetry_space_group_name_H-M    'P 1'
loop_
_atom_site_label
_atom_site_type_symbol
_atom_site_fract_x
_atom_site_fract_y
_atom_site_fract_z
_atom_site_occupancy
B2   B   0.907752353176209   0.953991007999133   0.110965190036950   1.0000000
B2   B   0.904986450344981   0.095265689399194   0.111043098877603   1.0000000
B2   B   0.903170907286788   0.237276726688231   0.111052212527546   1.0000000
B2   B   0.903030076557657   0.380264532692829   0.110956373955149   1.0000000
B2   B   0.904367205940300   0.523623126996659   0.110989676322832   1.0000000
B2   B   0.906577145397354   0.667115734366172   0.111115540541067   1.0000000
B2   B   0.908007769054825   0.810600092961276   0.111049767342616   1.0000000
B2   B   0.049288956090975   0.952322045690757   0.111005908996433   1.0000000
B2   B   0.047755609202222   0.094414195876851   0.110981076403729   1.0000000
B2   B   0.045154194921245   0.236031409977971   0.110948478745285   1.0000000
B2   B   0.044311370124135   0.379316627535816   0.110896406349202   1.0000000
B2   B   0.045240551504801   0.522957595222432   0.110915830831842   1.0000000
B2   B   0.047933328389007   0.666262217674410   0.111033603395908   1.0000000
B2   B   0.049353233324407   0.809433956979434   0.111081884484861   1.0000000
B2   B   0.191463142435841   0.951548577543020   0.111077037074317   1.0000000
B2   B   0.190679171830235   0.094060468137123   0.111057523263252   1.0000000
B2   B   0.187668752731896   0.234859403892185   0.110983822485109   1.0000000
B2   B   0.184475361297727   0.377068352201336   0.110939621757148   1.0000000
B2   B   0.185113508033170   0.521984271322780   0.110939123463355   1.0000000
B2   B   0.189677719648150   0.665234557854794   0.110969187143100   1.0000000
B2   B   0.191351626054901   0.808525706000198   0.111016709968517   1.0000000
B2   B   0.333810376387175   0.950956813827615   0.111078662190049   1.0000000
B2   B   0.333430412656235   0.093978450768734   0.111116658297831   1.0000000
B2   B   0.332342307237758   0.236150360763381   0.111075393207390   1.0000000
B2   B   0.326461778702385   0.373607928709362   0.111038762022600   1.0000000
B2   B   0.320902248989501   0.521919487886994   0.111125919203711   1.0000000
B2   B   0.332742763723683   0.661923749983680   0.111060483382654   1.0000000
B2   B   0.333733842434716   0.807261977072999   0.111014125382631   1.0000000
B2   B   0.476271425672366   0.951601349322196   0.111009116345444   1.0000000
B2   B   0.476029962040476   0.094307093858999   0.111070021517231   1.0000000
B2   B   0.475745957723017   0.236855099366927   0.111076167014973   1.0000000
B2   B   0.474921755257166   0.378235677719610   0.111003389383101   1.0000000
B2   B   0.475411087668028   0.808272262441269   0.110988710941011   1.0000000
B2   B   0.619691859096904   0.952973439403002   0.111013089211790   1.0000000
B2   B   0.618665367710805   0.094948228890517   0.110993814347988   1.0000000
B2   B   0.618495232388320   0.237619559878996   0.111014678987987   1.0000000
B2   B   0.619176972559489   0.380722606994446   0.111012165619964   1.0000000
B2   B   0.623460542012519   0.525780794606394   0.111043029385709   1.0000000
B2   B   0.631161482208811   0.675921159712693   0.111151481949663   1.0000000
B2   B   0.625009288557252   0.813775635927913   0.111001598798962   1.0000000
B2   B   0.764691426754058   0.954659088267454   0.110994545695777   1.0000000
B2   B   0.761650014665665   0.095355990519031   0.111068203440273   1.0000000
B2   B   0.760870747275821   0.237691489217033   0.111050680879629   1.0000000
B2   B   0.761289228321855   0.380686919755603   0.110988653825129   1.0000000
B2   B   0.763366489910382   0.524321567867708   0.111082741121180   1.0000000
B2   B   0.766057422120658   0.668591235897336   0.111095866323910   1.0000000
B2   B   0.768953553061553   0.814292712947108   0.111015254202524   1.0000000
N2   N   0.954662072798639   0.905534525199362   0.110969235251855   1.0000000
N2   N   0.953493325558863   0.048285836185668   0.110970936876512   1.0000000
N2   N   0.950882682501969   0.189654134816441   0.111029389875461   1.0000000
N2   N   0.949733261434819   0.332056520054161   0.110954449062825   1.0000000
N2   N   0.950390462014994   0.475290102189731   0.110913559779225   1.0000000
N2   N   0.952687113413456   0.618745518113131   0.111039365633831   1.0000000
N2   N   0.954378287987332   0.762161532670386   0.111088065444272   1.0000000
N2   N   0.096557487874014   0.904537768916439   0.111037416154775   1.0000000
N2   N   0.095959725487031   0.047257116551521   0.110986738440014   1.0000000
N2   N   0.093534043646427   0.188777558971982   0.110940066535837   1.0000000
N2   N   0.090636376023354   0.330228608528532   0.110874011255260   1.0000000
N2   N   0.090601514165140   0.474083299742357   0.110864165034000   1.0000000
N2   N   0.094082545336539   0.618019644552535   0.110952193969990   1.0000000
N2   N   0.096066959184550   0.761425983261442   0.111039163827027   1.0000000
N2   N   0.238741269603182   0.903916574876674   0.111043047276058   1.0000000
N2   N   0.238558197814377   0.046853380245613   0.111077959137002   1.0000000
N2   N   0.237494532944247   0.189209553517129   0.111032476450992   1.0000000
N2   N   0.232899913581459   0.329063365520560   0.110956236266976   1.0000000
N2   N   0.227751609256290   0.470408597922444   0.110981348930451   1.0000000
N2   N   0.235252829807690   0.616755782034234   0.110951342700941   1.0000000
N2   N   0.238144401464895   0.760675469027536   0.110976624239708   1.0000000
N2   N   0.381138996709757   0.903386945647280   0.111015976467299   1.0000000
N2   N   0.381045663514202   0.046656170515094   0.111099387182891   1.0000000
N2   N   0.380697491960285   0.189603995684125   0.111090656754123   1.0000000
N2   N   0.379707196896691   0.332067643397453   0.111041612543480   1.0000000
N2   N   0.362318721517548   0.466452575095960   0.111073514512324   1.0000000
N2   N   0.373625817128628   0.610815688614957   0.111167287376831   1.0000000
N2   N   0.380506142442830   0.759303397829172   0.111004948421055   1.0000000
N2   N   0.524460102994721   0.905114428431143   0.110987325640115   1.0000000
N2   N   0.523676765093579   0.047193975750742   0.110982742132442   1.0000000
N2   N   0.523394269373082   0.189881146677931   0.111049810004358   1.0000000
N2   N   0.523517771423196   0.332597608758980   0.111012826483254   1.0000000
N2   N   0.527614343778744   0.473862196761640   0.110898038401976   1.0000000
N2   N   0.540794984474983   0.649171426326526   0.111331775759664   1.0000000
N2   N   0.533415440534750   0.774670586688647   0.110825331234934   1.0000000
N2   N   0.670481528991222   0.908537148951441   0.111007576739954   1.0000000
N2   N   0.666762033277371   0.048137031529193   0.110993904397161   1.0000000
N2   N   0.665900732243864   0.190257297717624   0.110999596425435   1.0000000
N2   N   0.666027678050709   0.333072337581027   0.110977313346848   1.0000000
N2   N   0.667928402946788   0.476364662682864   0.111042394189524   1.0000000
N2   N   0.670671819670459   0.620970231816834   0.111093678888309   1.0000000
N2   N   0.676051545319052   0.769105843963872   0.111033008871773   1.0000000
N2   N   0.813834287752044   0.908175103552626   0.110942660059842   1.0000000
N2   N   0.810555497183583   0.048963347783134   0.111032197314009   1.0000000
N2   N   0.808426205869159   0.190244898701672   0.111083752541846   1.0000000
N2   N   0.808083626656600   0.332799226847707   0.110983822960067   1.0000000
N2   N   0.809250724533002   0.475920745839401   0.111001268450531   1.0000000
N2   N   0.811417173710009   0.619491132248470   0.111109210409709   1.0000000
N2   N   0.813459395009350   0.763577805701090   0.111036013669913   1.0000000
Se2   Se   0.474917704472591   0.539513217498992   0.111139136354381   1.0000000


