data_1
_audit_creation_method   'vasp2cif'
_cell_length_a    17.52789999999977
_cell_length_b    17.52789999999977
_cell_length_c    15.0
_cell_angle_alpha    90.0
_cell_angle_beta    90.0
_cell_angle_gamma    119.99999999999916

_symmetry_space_group_name_H-M    'P 1'
loop_
_atom_site_label
_atom_site_type_symbol
_atom_site_fract_x
_atom_site_fract_y
_atom_site_fract_z
_atom_site_occupancy
As2   As   0.495337623338409   0.504663778578583   0.111247804385956   1.0000000
B2   B   0.906118187088263   0.953274591525161   0.110987772510067   1.0000000
B2   B   0.904545723337901   0.095456297858086   0.111018277497422   1.0000000
B2   B   0.904065107624157   0.238276932280991   0.111034010109581   1.0000000
B2   B   0.904277265133158   0.381172329167415   0.110977878967925   1.0000000
B2   B   0.905548008093104   0.524159700753795   0.111033368526361   1.0000000
B2   B   0.907445740499984   0.667559074151713   0.111080551626959   1.0000000
B2   B   0.908077325089614   0.811337517231561   0.111024223103922   1.0000000
B2   B   0.048364035018121   0.951637986177887   0.110983706907871   1.0000000
B2   B   0.046727429670828   0.093883834107725   0.110987772510067   1.0000000
B2   B   0.046312247637269   0.237192512325533   0.110978784695671   1.0000000
B2   B   0.046858157417963   0.380502489943343   0.111004113607209   1.0000000
B2   B   0.048213084817349   0.523408051811296   0.111007796117046   1.0000000
B2   B   0.049188118205146   0.666281703575587   0.111063561580498   1.0000000
B2   B   0.049313570622803   0.809161419275170   0.111038932844042   1.0000000
B2   B   0.190840601920824   0.950688450573223   0.111038932844042   1.0000000
B2   B   0.188664503964424   0.091924696106388   0.111024223103922   1.0000000
B2   B   0.187136722938692   0.234351604466161   0.111006118492215   1.0000000
B2   B   0.188491893184074   0.379174660411932   0.110997165372223   1.0000000
B2   B   0.191089317010124   0.522722324731535   0.111031739668111   1.0000000
B2   B   0.191770447134909   0.665648697093972   0.111027883363387   1.0000000
B2   B   0.191633975673305   0.808368045522727   0.111003564780224   1.0000000
B2   B   0.333720317621416   0.950813902990864   0.111063561580498   1.0000000
B2   B   0.332442947045264   0.092556280696020   0.111080551626959   1.0000000
B2   B   0.328213307808559   0.231275585667554   0.111045948208914   1.0000000
B2   B   0.326625804112980   0.374440585539289   0.111065879291322   1.0000000
B2   B   0.334108844326384   0.521813721193537   0.111080090029957   1.0000000
B2   B   0.334782257251028   0.665219763945976   0.111064304889051   1.0000000
B2   B   0.334353324103033   0.808231574061110   0.111027883363387   1.0000000
B2   B   0.476593969385677   0.951788936378625   0.111007796117046   1.0000000
B2   B   0.475842320443212   0.094454013102898   0.111033368526361   1.0000000
B2   B   0.474327528099542   0.236309304192601   0.111027124830024   1.0000000
B2   B   0.464953057563456   0.369305222689034   0.111097036718746   1.0000000
B2   B   0.478188300003468   0.665893176870605   0.111080090029957   1.0000000
B2   B   0.477279696465460   0.808912704185896   0.111031739668111   1.0000000
B2   B   0.619499531252637   0.953143863778015   0.111004113607209   1.0000000
B2   B   0.618829692028584   0.095724756062834   0.110977878967925   1.0000000
B2   B   0.618260777627811   0.238697456536489   0.110987529065240   1.0000000
B2   B   0.617805652966438   0.382196368229596   0.111020849845914   1.0000000
B2   B   0.630696798506967   0.535048963633524   0.111097036718746   1.0000000
B2   B   0.625561435656734   0.673376217084009   0.111065879291322   1.0000000
B2   B   0.620827360784098   0.811510128011949   0.110997165372223   1.0000000
B2   B   0.762809508870474   0.953689773558734   0.110978784695671   1.0000000
B2   B   0.761725088915010   0.095936913571836   0.111034010109581   1.0000000
B2   B   0.761291355569975   0.238710665626011   0.111018394600934   1.0000000
B2   B   0.761304564659511   0.381741243568160   0.110987529065242   1.0000000
B2   B   0.763692717003402   0.525674493097448   0.111027124830024   1.0000000
B2   B   0.768726435528432   0.671788713388444   0.111045948208914   1.0000000
B2   B   0.765650416729835   0.812865298257309   0.111006118492215   1.0000000
N2   N   0.953840357639007   0.905551603594200   0.110963522412230   1.0000000
N2   N   0.952261938296015   0.047739463621984   0.110984049673263   1.0000000
N2   N   0.951566264072479   0.190448318309218   0.110997064471650   1.0000000
N2   N   0.951700132696559   0.333433272790371   0.110986810200611   1.0000000
N2   N   0.952614985052164   0.476265941629266   0.110972434857061   1.0000000
N2   N   0.953763823568843   0.619119415085161   0.111071010441412   1.0000000
N2   N   0.954278074546506   0.762346262312627   0.111049794423815   1.0000000
N2   N   0.096019783799281   0.903981618118724   0.110991069359180   1.0000000
N2   N   0.094449798323802   0.046161044279003   0.110963522412230   1.0000000
N2   N   0.093239456398837   0.188677751319985   0.110968281774659   1.0000000
N2   N   0.094007428836844   0.332431033053366   0.110957649760650   1.0000000
N2   N   0.095753760515839   0.475619152228458   0.110998026052833   1.0000000
N2   N   0.096475568063549   0.618419415430744   0.111023810455694   1.0000000
N2   N   0.096553283799646   0.761229928591373   0.111011402327844   1.0000000
N2   N   0.238771473326636   0.903448118118362   0.111011402327844   1.0000000
N2   N   0.237655139605357   0.045723327371505   0.111049794423815   1.0000000
N2   N   0.234749088697929   0.186566717109650   0.110991480946878   1.0000000
N2   N   0.233864604745192   0.329338358733546   0.110998016414326   1.0000000
N2   N   0.238772591557624   0.474551182251024   0.111015222408005   1.0000000
N2   N   0.239594628062740   0.617812957761542   0.111026339624759   1.0000000
N2   N   0.239296778200935   0.760704623717073   0.110994497163633   1.0000000
N2   N   0.381581986487265   0.903525833854454   0.111023810455694   1.0000000
N2   N   0.380881986832840   0.046237578349185   0.111071010441412   1.0000000
N2   N   0.379437480953414   0.188084924908586   0.111024184018283   1.0000000
N2   N   0.373715871328754   0.326207472275611   0.111089954237158   1.0000000
N2   N   0.377264398735054   0.468687935025477   0.111026975397871   1.0000000
N2   N   0.383083533258860   0.616917868659146   0.111076382630919   1.0000000
N2   N   0.382188444156448   0.760406773855271   0.111026339624759   1.0000000
N2   N   0.524382249688514   0.904247641402171   0.110998026052833   1.0000000
N2   N   0.523735460287744   0.047386416865823   0.110972434857061   1.0000000
N2   N   0.522983729929177   0.190532704828974   0.110993625374487   1.0000000
N2   N   0.521590219393340   0.333994417681781   0.111035157307500   1.0000000
N2   N   0.531313466891513   0.622737003182952   0.111026975397871   1.0000000
N2   N   0.525450219665961   0.761228810360398   0.111015222408005   1.0000000
N2   N   0.667570368863617   0.905993973081138   0.110957649760650   1.0000000
N2   N   0.666568129126609   0.048301269221459   0.110986810200611   1.0000000
N2   N   0.665930483211070   0.191360644601929   0.110967317978144   1.0000000
N2   N   0.665164160360348   0.334837241556659   0.110969551451581   1.0000000
N2   N   0.666006984235198   0.478411182523676   0.111035157307500   1.0000000
N2   N   0.673793929641369   0.626285530589260   0.111089954237158   1.0000000
N2   N   0.670663043183451   0.766136797172821   0.110998016414326   1.0000000
N2   N   0.811323650598017   0.906761945519133   0.110968281774659   1.0000000
N2   N   0.809553083608785   0.048435137845544   0.110997064471650   1.0000000
N2   N   0.808888101695129   0.191113300222868   0.111032213905466   1.0000000
N2   N   0.808640757316059   0.334070918705934   0.110967317978144   1.0000000
N2   N   0.809468697089042   0.477017671987826   0.110993625374487   1.0000000
N2   N   0.811916477009439   0.620563920964559   0.111024184018283   1.0000000
N2   N   0.813434684808359   0.765252313220118   0.110991480946878   1.0000000


