data_1
_audit_creation_method   'vasp2cif'
_cell_length_a    17.52789999999977
_cell_length_b    17.52789999999977
_cell_length_c    15.0
_cell_angle_alpha    90.0
_cell_angle_beta    90.0
_cell_angle_gamma    119.99999999999916

_symmetry_space_group_name_H-M    'P 1'
loop_
_atom_site_label
_atom_site_type_symbol
_atom_site_fract_x
_atom_site_fract_y
_atom_site_fract_z
_atom_site_occupancy
B2   B   0.910685164585111   0.954977426300419   0.110626468016988   1.0000000
B2   B   0.909410446989052   0.096112620503289   0.110740198740625   1.0000000
B2   B   0.908855347096858   0.237788533461932   0.110731136930079   1.0000000
B2   B   0.908760713184843   0.380170699200232   0.110663761047171   1.0000000
B2   B   0.908001527870158   0.522907175140295   0.110686435663181   1.0000000
B2   B   0.907892028226053   0.665721213822901   0.110746440965105   1.0000000
B2   B   0.905858040252135   0.807999248408058   0.110728940844199   1.0000000
B2   B   0.051364494461209   0.954174752200089   0.110647332044149   1.0000000
B2   B   0.053135305238265   0.097532815346302   0.110717755510861   1.0000000
B2   B   0.051797933380688   0.238655348238289   0.110844510231049   1.0000000
B2   B   0.050338374799012   0.381055563464084   0.110711434839454   1.0000000
B2   B   0.048947211601075   0.524477465344098   0.110687455591797   1.0000000
B2   B   0.049361964383486   0.667850702294525   0.110764429405179   1.0000000
B2   B   0.049769526135309   0.810945170687040   0.110738638576960   1.0000000
B2   B   0.193869066800307   0.955469212278158   0.110684465969284   1.0000000
B2   B   0.196936460244764   0.100015233935453   0.110710541565314   1.0000000
B2   B   0.196042368554806   0.240628274606170   0.110824247184804   1.0000000
B2   B   0.192455888551460   0.381337145039221   0.110746133642781   1.0000000
B2   B   0.188729561936454   0.525088170800778   0.110699535844395   1.0000000
B2   B   0.189900674458336   0.669021155748910   0.110770113157903   1.0000000
B2   B   0.192120155075514   0.812138994542811   0.110781008834023   1.0000000
B2   B   0.335902481408411   0.955318520271486   0.110743444217161   1.0000000
B2   B   0.338132389973076   0.099397012407348   0.110762624316721   1.0000000
B2   B   0.344482477915368   0.247700051027056   0.110848322548718   1.0000000
B2   B   0.338012326538097   0.382208375944119   0.110631194458651   1.0000000
B2   B   0.326520129733543   0.525973838709193   0.110508513344135   1.0000000
B2   B   0.329074009259531   0.670101849049724   0.110739753497540   1.0000000
B2   B   0.334196555884138   0.812573594846306   0.110825207537608   1.0000000
B2   B   0.478224184307339   0.953581352928723   0.110765944480511   1.0000000
B2   B   0.479693309235017   0.096077234584292   0.110762359746246   1.0000000
B2   B   0.482239307625202   0.239670170118863   0.110860371775403   1.0000000
B2   B   0.502140818272082   0.397598897520997   0.110966269502903   1.0000000
B2   B   0.465803011750964   0.667995794415539   0.110660936973516   1.0000000
B2   B   0.476816447604222   0.811184014476739   0.110791245114226   1.0000000
B2   B   0.621569875627055   0.954579839435505   0.110693054100042   1.0000000
B2   B   0.622292099759089   0.094847709692818   0.110662220110053   1.0000000
B2   B   0.623484548783892   0.235265687307733   0.110698676240300   1.0000000
B2   B   0.625982870691132   0.374453291395191   0.110795706752712   1.0000000
B2   B   0.607615622993089   0.495750791287806   0.110994452543726   1.0000000
B2   B   0.621642328182313   0.815342228334844   0.110793397138515   1.0000000
B2   B   0.766258826969706   0.954363182137091   0.110669510946276   1.0000000
B2   B   0.765763620162600   0.095360961179792   0.110687383368854   1.0000000
B2   B   0.766191456827888   0.236726036160229   0.110657067970953   1.0000000
B2   B   0.767240449574575   0.378304541931065   0.110669367500866   1.0000000
B2   B   0.765356848446603   0.518996335638350   0.110705369838279   1.0000000
B2   B   0.763288676538446   0.658154070001853   0.110865433616565   1.0000000
B2   B   0.769957294714041   0.814363677929419   0.110843389260160   1.0000000
Se2   Se   0.615876901162152   0.659446543626674   0.110857967379942   1.0000000
N2   N   0.955312488327735   0.904738932153585   0.110623538418818   1.0000000
N2   N   0.957947636053736   0.049665060434340   0.110656508537850   1.0000000
N2   N   0.956859027420904   0.190872517983884   0.110795377802007   1.0000000
N2   N   0.956140784452146   0.332761644033617   0.110682359617134   1.0000000
N2   N   0.955197540272788   0.475477757884324   0.110641169341035   1.0000000
N2   N   0.955258469685365   0.618630651363887   0.110719445151818   1.0000000
N2   N   0.954392843893068   0.761676235868685   0.110729163684299   1.0000000
N2   N   0.098389475572453   0.906528430344304   0.110651509941497   1.0000000
N2   N   0.100580069749699   0.050287978638818   0.110643957084173   1.0000000
N2   N   0.100608108134976   0.192530550012317   0.110820008099852   1.0000000
N2   N   0.098216779129763   0.333685645212678   0.110776800498288   1.0000000
N2   N   0.095500855738609   0.476388143388490   0.110668641776701   1.0000000
N2   N   0.096004454416177   0.619989638060464   0.110738808898170   1.0000000
N2   N   0.097134586373562   0.763396282621383   0.110773030834238   1.0000000
N2   N   0.240656135821225   0.907278681459223   0.110709032825523   1.0000000
N2   N   0.242615023020853   0.050915770366679   0.110684168313449   1.0000000
N2   N   0.246416637903225   0.196404195433123   0.110775657786459   1.0000000
N2   N   0.242549929951061   0.335788123497601   0.110752384152086   1.0000000
N2   N   0.234700734332714   0.476603952403122   0.110665948366986   1.0000000
N2   N   0.235795471445901   0.620637174160555   0.110702649930907   1.0000000
N2   N   0.239165867408114   0.764206681229491   0.110793725938919   1.0000000
N2   N   0.382980649710610   0.907050703353437   0.110780902699681   1.0000000
N2   N   0.384373645577730   0.050035391883823   0.110736012070914   1.0000000
N2   N   0.386809706846553   0.194535492658222   0.110833436581952   1.0000000
N2   N   0.395322519568896   0.345667605429100   0.110831944251978   1.0000000
N2   N   0.372814676484402   0.477984680160487   0.110312176827314   1.0000000
N2   N   0.373649878041192   0.620892965649533   0.110640116372212   1.0000000
N2   N   0.381281794452855   0.764463745623015   0.110789797958201   1.0000000
N2   N   0.525772517635770   0.905630578296775   0.110756606019407   1.0000000
N2   N   0.526908219312603   0.047880799895151   0.110699393941505   1.0000000
N2   N   0.528416099344277   0.190048559480847   0.110766911394666   1.0000000
N2   N   0.532069047045202   0.332672732858161   0.110880026097876   1.0000000
N2   N   0.458769837347313   0.522312795543249   0.110685416671980   1.0000000
N2   N   0.494916399049224   0.604104677919002   0.110732364593964   1.0000000
N2   N   0.524135374772937   0.761843332365095   0.110729322062903   1.0000000
N2   N   0.669986257345121   0.908839945278309   0.110630609158920   1.0000000
N2   N   0.670285041972928   0.048291650312659   0.110649262058287   1.0000000
N2   N   0.671176863479425   0.188578110540582   0.110621966681864   1.0000000
N2   N   0.673313940407222   0.328545858757296   0.110688222788346   1.0000000
N2   N   0.672324273144772   0.467339167815611   0.110763942357819   1.0000000
N2   N   0.669331445471714   0.596061339068532   0.111028218290434   1.0000000
N2   N   0.677845970319517   0.779747098097986   0.111044197465311   1.0000000
N2   N   0.816090865581676   0.908616933161068   0.110638670222529   1.0000000
N2   N   0.814027437306583   0.048663654514170   0.110695866913180   1.0000000
N2   N   0.813968651458846   0.189801594157664   0.110676170155578   1.0000000
N2   N   0.814635827618781   0.331372750424516   0.110656827942555   1.0000000
N2   N   0.814210630826501   0.473338728268065   0.110644108796392   1.0000000
N2   N   0.813948391121030   0.615421840495540   0.110714154405910   1.0000000
N2   N   0.808850977798811   0.757792696829828   0.110807429540256   1.0000000


