data_1
_audit_creation_method   'vasp2cif'
_cell_length_a    17.52789999999977
_cell_length_b    17.52789999999977
_cell_length_c    15.0
_cell_angle_alpha    90.0
_cell_angle_beta    90.0
_cell_angle_gamma    119.99999999999916

_symmetry_space_group_name_H-M    'P 1'
loop_
_atom_site_label
_atom_site_type_symbol
_atom_site_fract_x
_atom_site_fract_y
_atom_site_fract_z
_atom_site_occupancy
Ga2   Ga   0.441258988056646   0.506344696652324   0.111284062316759   1.0000000
B2   B   0.905123419076583   0.952666478983342   0.110985212245198   1.0000000
B2   B   0.906219899102005   0.096225156920050   0.111041014489541   1.0000000
B2   B   0.906667692461123   0.239048193076060   0.111110693182059   1.0000000
B2   B   0.906219899102005   0.381423435872952   0.111041014489541   1.0000000
B2   B   0.905123419076583   0.523887345341249   0.110985212245198   1.0000000
B2   B   0.903775731009133   0.666056567608011   0.111041675553979   1.0000000
B2   B   0.903775731009133   0.809149568649123   0.111041675553979   1.0000000
B2   B   0.046942008888550   0.951625512543829   0.110989665109366   1.0000000
B2   B   0.048127070854957   0.095004496651082   0.110994429294495   1.0000000
B2   B   0.049280428348907   0.238799388317052   0.111044151188780   1.0000000
B2   B   0.049280428348907   0.381911445278848   0.111044151188780   1.0000000
B2   B   0.048127070854957   0.524552979451870   0.110994429294495   1.0000000
B2   B   0.046942008888550   0.666748613148712   0.110989665109366   1.0000000
B2   B   0.046800785697074   0.809116451250539   0.110977725841351   1.0000000
B2   B   0.189696646290315   0.951452467922375   0.111004982285551   1.0000000
B2   B   0.189926961312833   0.093623105149418   0.111039846235756   1.0000000
B2   B   0.190876067030303   0.236831387069087   0.111016072708235   1.0000000
B2   B   0.192157524908429   0.381793965077721   0.111041859322602   1.0000000
B2   B   0.190876067030303   0.525475085209226   0.111016072708235   1.0000000
B2   B   0.189926961312833   0.667734261411417   0.111039846235756   1.0000000
B2   B   0.189696646290315   0.809676295171952   0.111004982285551   1.0000000
B2   B   0.332945774954730   0.952188945878873   0.111025218746852   1.0000000
B2   B   0.332977288451603   0.093042104691023   0.111068564723439   1.0000000
B2   B   0.332859709091264   0.233837223636949   0.111038356384598   1.0000000
B2   B   0.332126075266948   0.372838661991432   0.111119410094041   1.0000000
B2   B   0.332126075266948   0.530717818522516   0.111119410094041   1.0000000
B2   B   0.332859709091264   0.670452890701322   0.111038356384598   1.0000000
B2   B   0.332977288451603   0.811365589007579   0.111068564723439   1.0000000
B2   B   0.476638047060935   0.953771732561077   0.111002061934629   1.0000000
B2   B   0.476638047060935   0.094296719746858   0.111002061934629   1.0000000
B2   B   0.476764225807891   0.234584567516261   0.111002500154795   1.0000000
B2   B   0.477739369641193   0.375088580974863   0.111045611670182   1.0000000
B2   B   0.477739369641193   0.674081193913330   0.111045611670182   1.0000000
B2   B   0.476764225807891   0.813610063538637   0.111002500154795   1.0000000
B2   B   0.620293606049267   0.954455703347761   0.110982051820316   1.0000000
B2   B   0.620341109669039   0.095884901680018   0.110979232846758   1.0000000
B2   B   0.620293606049267   0.237268307948505   0.110982051820316   1.0000000
B2   B   0.620306119851797   0.379291931422922   0.110991699919292   1.0000000
B2   B   0.617077691404469   0.520137324388819   0.111073327245462   1.0000000
B2   B   0.617077691404469   0.668370772263645   0.111073327245462   1.0000000
B2   B   0.620306119851797   0.812444593675875   0.110991699919292   1.0000000
B2   B   0.763238816857564   0.954040376783733   0.110975950744955   1.0000000
B2   B   0.763601333749871   0.096423258504031   0.111025375318336   1.0000000
B2   B   0.763601333749871   0.238606768936830   0.111025375318336   1.0000000
B2   B   0.763238816857564   0.380628845320832   0.110975950744955   1.0000000
B2   B   0.761547501696718   0.522692706656211   0.111036616482215   1.0000000
B2   B   0.760400472983486   0.665915439115747   0.111104761515505   1.0000000
B2   B   0.761547501696718   0.810285200288502   0.111036616482215   1.0000000
N2   N   0.951700346842856   0.904179036873984   0.110981271179895   1.0000000
N2   N   0.953042641922345   0.047827512893067   0.110977560127753   1.0000000
N2   N   0.954282790861554   0.191459779270442   0.111067764093498   1.0000000
N2   N   0.954282790861554   0.334249993709118   0.111067764093498   1.0000000
N2   N   0.953042641922345   0.476642111147276   0.110977560127753   1.0000000
N2   N   0.951700346842856   0.618950003643861   0.110981271179895   1.0000000
N2   N   0.951004670795611   0.761216682235300   0.111011756799986   1.0000000
N2   N   0.094369777305158   0.904033599291557   0.110962143618303   1.0000000
N2   N   0.094957370787649   0.046793976280613   0.110987202277552   1.0000000
N2   N   0.096295185406894   0.190504501289759   0.110986628761819   1.0000000
N2   N   0.097447457398368   0.334438075536184   0.111015068764784   1.0000000
N2   N   0.096295185406894   0.477219377791143   0.110986628761819   1.0000000
N2   N   0.094957370787649   0.619592088182032   0.110987202277552   1.0000000
N2   N   0.094369777305158   0.761766583244607   0.110962143618303   1.0000000
N2   N   0.237646736760256   0.904538570995627   0.110985780545309   1.0000000
N2   N   0.237749166910840   0.046428020560222   0.111039651858857   1.0000000
N2   N   0.238075167489352   0.188872660433114   0.111017909086413   1.0000000
N2   N   0.239622838496601   0.333395619605869   0.111043445625875   1.0000000
N2   N   0.239622838496601   0.477655912564726   0.111043445625875   1.0000000
N2   N   0.238075167489352   0.620631200731234   0.111017909086413   1.0000000
N2   N   0.237749166910840   0.762749840025621   0.111039651858857   1.0000000
N2   N   0.381256353909712   0.905841532205490   0.111019118116242   1.0000000
N2   N   0.381256353909712   0.046843515379225   0.111019118116242   1.0000000
N2   N   0.381421091768036   0.187874406282372   0.111024492760156   1.0000000
N2   N   0.381718585249491   0.328789640364095   0.111031520888823   1.0000000
N2   N   0.381718585249491   0.624357638560399   0.111031520888823   1.0000000
N2   N   0.381421091768036   0.764975379160667   0.111024492760156   1.0000000
N2   N   0.524998923777454   0.907604119282361   0.110979146313791   1.0000000
N2   N   0.525021413578001   0.048224197848508   0.110964566796095   1.0000000
N2   N   0.524998923777454   0.188823498170088   0.110979146313791   1.0000000
N2   N   0.525207288188083   0.329119558012014   0.110978911427096   1.0000000
N2   N   0.523913717022915   0.468107510078470   0.111066132013224   1.0000000
N2   N   0.523913717022915   0.627234900619441   0.111066132013224   1.0000000
N2   N   0.525207288188083   0.767516423851072   0.110978911427096   1.0000000
N2   N   0.668183787765323   0.907076293415939   0.110959873750273   1.0000000
N2   N   0.668382609311717   0.049024977940325   0.110970816197707   1.0000000
N2   N   0.668382609311717   0.190784613490398   0.110970816197707   1.0000000
N2   N   0.668183787765323   0.332536188024379   0.110959873750273   1.0000000
N2   N   0.666801901947995   0.474663038680302   0.111014621519847   1.0000000
N2   N   0.663711204606576   0.617569949141290   0.111076782472574   1.0000000
N2   N   0.666801901947995   0.763567556942697   0.111014621519847   1.0000000
N2   N   0.809841938082008   0.905282793872238   0.110973488628438   1.0000000
N2   N   0.811155139248734   0.048900385184831   0.110995985737566   1.0000000
N2   N   0.811455136055866   0.191441059086936   0.111051496165758   1.0000000
N2   N   0.811155139248734   0.333681736181901   0.110995985737566   1.0000000
N2   N   0.809841938082008   0.475987837883771   0.110973488628438   1.0000000
N2   N   0.808021254141079   0.618289958767677   0.111061314594504   1.0000000
N2   N   0.808021254141079   0.761159989048411   0.111061314594504   1.0000000


