data_1
_audit_creation_method   'vasp2cif'
_cell_length_a    17.52789999999977
_cell_length_b    17.52789999999977
_cell_length_c    15.0
_cell_angle_alpha    90.0
_cell_angle_beta    90.0
_cell_angle_gamma    119.99999999999916

_symmetry_space_group_name_H-M    'P 1'
loop_
_atom_site_label
_atom_site_type_symbol
_atom_site_fract_x
_atom_site_fract_y
_atom_site_fract_z
_atom_site_occupancy
P2   P   0.393195461032987   0.484270261424244   0.110179360381126   1.0000000
B2   B   0.907182741895207   0.952147148154224   0.110783725861078   1.0000000
B2   B   0.908678955180021   0.095615370659157   0.110816577776070   1.0000000
B2   B   0.908995469636553   0.238309808278533   0.110771163877455   1.0000000
B2   B   0.908252343774826   0.380798810727694   0.110705201376335   1.0000000
B2   B   0.905164312789105   0.522965255289731   0.110747474343961   1.0000000
B2   B   0.902636720757334   0.664635439180637   0.110756314336783   1.0000000
B2   B   0.903238495268967   0.806869221273192   0.110731542719862   1.0000000
B2   B   0.048895446777779   0.951869149143611   0.110723363927288   1.0000000
B2   B   0.050815377068835   0.095145313374842   0.110769054540953   1.0000000
B2   B   0.052007026136531   0.238718640951560   0.110783450909710   1.0000000
B2   B   0.051137372967637   0.381633954657067   0.110711136235618   1.0000000
B2   B   0.048100859258483   0.524432293746175   0.110703368996026   1.0000000
B2   B   0.046995573219411   0.666636692039733   0.110761807134243   1.0000000
B2   B   0.047155812151076   0.808833626295647   0.110725467926091   1.0000000
B2   B   0.191739446999303   0.952543936259157   0.110731902591261   1.0000000
B2   B   0.194334062705378   0.096094113749302   0.110696520338906   1.0000000
B2   B   0.194160874897501   0.237295687429005   0.110737055327445   1.0000000
B2   B   0.195180123260543   0.382462234430859   0.110817757793316   1.0000000
B2   B   0.189785612654463   0.525971802354188   0.110729905878544   1.0000000
B2   B   0.190292514426412   0.668469857737154   0.110744398192216   1.0000000
B2   B   0.190658571644666   0.810337978223500   0.110743313898475   1.0000000
B2   B   0.335016876452489   0.953292987521392   0.110751478748692   1.0000000
B2   B   0.336477502339967   0.094815533293983   0.110713681846345   1.0000000
B2   B   0.341678697635039   0.238762772459316   0.110737845912693   1.0000000
B2   B   0.337246913286873   0.368957477409691   0.110838549116938   1.0000000
B2   B   0.329943724769420   0.535211080620024   0.110803516772194   1.0000000
B2   B   0.333552638190236   0.673183307322891   0.110759132662443   1.0000000
B2   B   0.334247011807921   0.812636089616365   0.110802076940781   1.0000000
B2   B   0.478724388683431   0.953982479526311   0.110801002702596   1.0000000
B2   B   0.479530941022057   0.095060896267596   0.110802210310575   1.0000000
B2   B   0.481432376322738   0.237220366004000   0.110736061418225   1.0000000
B2   B   0.498588079942398   0.392202514182450   0.110732606998810   1.0000000
B2   B   0.477657965466958   0.673786680789995   0.110710507977783   1.0000000
B2   B   0.478441393524067   0.813535905893372   0.110775841711437   1.0000000
B2   B   0.622448945443073   0.953644981172899   0.110772797282116   1.0000000
B2   B   0.622820158889974   0.095050271552569   0.110766253480177   1.0000000
B2   B   0.623418098543177   0.236274435074498   0.110756247036617   1.0000000
B2   B   0.624589647074201   0.376954865575382   0.110781782536779   1.0000000
B2   B   0.599953649986107   0.499790920900264   0.110734678350445   1.0000000
B2   B   0.623040581679956   0.668593042594812   0.110638128203356   1.0000000
B2   B   0.622196241345924   0.811636918775806   0.110749025011582   1.0000000
B2   B   0.765362840728352   0.953011436626346   0.110804121093544   1.0000000
B2   B   0.765966559754792   0.095515475460041   0.110767266576014   1.0000000
B2   B   0.766195756723004   0.237597605920336   0.110731642091078   1.0000000
B2   B   0.765926356389886   0.379623361253028   0.110731065909715   1.0000000
B2   B   0.760455960934365   0.520468399564098   0.110798625106656   1.0000000
B2   B   0.755170561078324   0.659615137621095   0.110699674657047   1.0000000
B2   B   0.764038179519685   0.809484984759122   0.110720173603962   1.0000000
N2   N   0.953220920876529   0.903375739603025   0.110728643578283   1.0000000
N2   N   0.955608691916111   0.047580123871086   0.110792037600262   1.0000000
N2   N   0.956709797621298   0.190917844714969   0.110795964190964   1.0000000
N2   N   0.956285341461959   0.333452263070618   0.110722185065170   1.0000000
N2   N   0.953748580860230   0.475986246818238   0.110708478439748   1.0000000
N2   N   0.952082735799399   0.618359255897720   0.110745451298064   1.0000000
N2   N   0.951818274058405   0.760457389430987   0.110718402670799   1.0000000
N2   N   0.096166372331364   0.904288935774063   0.110702669999624   1.0000000
N2   N   0.098155166230032   0.047595147367324   0.110714813898869   1.0000000
N2   N   0.098769586642044   0.190285706270036   0.110725739813167   1.0000000
N2   N   0.099536417402753   0.334273873523500   0.110721934319779   1.0000000
N2   N   0.095662262921727   0.477022406564161   0.110658278977364   1.0000000
N2   N   0.095273027652027   0.619769173982684   0.110735227494416   1.0000000
N2   N   0.095314962460420   0.761977581895067   0.110725100135435   1.0000000
N2   N   0.239359748180582   0.905279935577334   0.110719617630314   1.0000000
N2   N   0.240643036463716   0.047445816174362   0.110706404975221   1.0000000
N2   N   0.243631728971942   0.191408270030424   0.110666643475491   1.0000000
N2   N   0.241702199926273   0.332174929721568   0.110820052803937   1.0000000
N2   N   0.236732745478126   0.478682888289617   0.110832632183004   1.0000000
N2   N   0.238115745666977   0.621826309196096   0.110688170084042   1.0000000
N2   N   0.238703651969405   0.763654131886443   0.110759360408021   1.0000000
N2   N   0.383100117863688   0.906868143741769   0.110776550269349   1.0000000
N2   N   0.383854811106420   0.047423810679379   0.110740618245004   1.0000000
N2   N   0.385592208417831   0.188507745932198   0.110673102395013   1.0000000
N2   N   0.393039940744706   0.333013911176417   0.110788396516933   1.0000000
N2   N   0.381901285462771   0.628595617086580   0.110767073671768   1.0000000
N2   N   0.382687677266803   0.767132673037395   0.110757777110274   1.0000000
N2   N   0.527025685241059   0.907632753595534   0.110771726395818   1.0000000
N2   N   0.527429496127068   0.048084067364259   0.110777644862265   1.0000000
N2   N   0.528328896912743   0.188887994884482   0.110765022031579   1.0000000
N2   N   0.530842937307411   0.330061746222619   0.110718353008234   1.0000000
N2   N   0.495761450491060   0.543961364465791   0.110377923947269   1.0000000
N2   N   0.528754927371090   0.631223510659685   0.110565950615961   1.0000000
N2   N   0.526830443900700   0.767606951569377   0.110721772740349   1.0000000
N2   N   0.670239468829716   0.906498995762648   0.110772511268063   1.0000000
N2   N   0.670776367027430   0.048152007424064   0.110739810911763   1.0000000
N2   N   0.671267286689825   0.189285722298896   0.110737218176201   1.0000000
N2   N   0.672156603314572   0.330175922095836   0.110735817904772   1.0000000
N2   N   0.667124825293943   0.470821162141013   0.110776864189230   1.0000000
N2   N   0.659009963273348   0.610372918131717   0.110631371820753   1.0000000
N2   N   0.669788043995191   0.764079105556767   0.110683734976073   1.0000000
N2   N   0.812360694229936   0.905092206996706   0.110773306670876   1.0000000
N2   N   0.813532650505719   0.048145094782954   0.110788552642714   1.0000000
N2   N   0.814014490117897   0.190389387639012   0.110747753809018   1.0000000
N2   N   0.813916704949164   0.332427929744675   0.110686058900560   1.0000000
N2   N   0.810997238446644   0.474565007513894   0.110746494551541   1.0000000
N2   N   0.807745793747570   0.616300347699915   0.110752004739602   1.0000000
N2   N   0.807604756347960   0.758315408110106   0.110701050373677   1.0000000


