data_1
_audit_creation_method   'vasp2cif'
_cell_length_a    14.93631414619966
_cell_length_b    14.936314146199727
_cell_length_c    13.341276283792837
_cell_angle_alpha    90.0
_cell_angle_beta    90.0
_cell_angle_gamma    119.99999999999984

_symmetry_space_group_name_H-M    'P 1'
loop_
_atom_site_label
_atom_site_type_symbol
_atom_site_fract_x
_atom_site_fract_y
_atom_site_fract_z
_atom_site_occupancy
Al2   Al   0.555555555555557   0.444444444444443   0.375000000000000   1.0000000
N2   N   0.111096855463321   0.055547084873177   0.124994466684425   1.0000000
N2   N   0.611137723613661   0.555608780560650   0.124250306769856   1.0000000
N2   N   0.444443729722360   0.055548664596055   0.125058824610782   1.0000000
N2   N   0.944451335403945   0.555556270277633   0.125058824610782   1.0000000
N2   N   0.777782555590615   0.055557944461979   0.124962189138144   1.0000000
N2   N   0.111112182451291   0.722222757892310   0.624978622868772   1.0000000
N2   N   0.444443729722360   0.722228398459641   0.624941175389218   1.0000000
N2   N   0.277744246355897   0.222196968655697   0.625041786111696   1.0000000
N2   N   0.777803031344302   0.722255753644104   0.625041786111696   1.0000000
N2   N   0.611119388966472   0.222196968655697   0.625041786111696   1.0000000
N2   N   0.944442055538028   0.222217444409385   0.625037810861856   1.0000000
N2   N   0.277777242107690   0.722222757892310   0.125021377131228   1.0000000
N2   N   0.111090163808729   0.222211748571029   0.124963246167879   1.0000000
N2   N   0.444438827212701   0.222210987758731   0.125026174572606   1.0000000
N2   N   0.611119388966472   0.722255753644104   0.124958213888304   1.0000000
N2   N   0.944451335403945   0.722228398459641   0.125058824610782   1.0000000
N2   N   0.777788251428971   0.222211748571029   0.124963246167879   1.0000000
N2   N   0.111110704087203   0.888889295912796   0.624973210358900   1.0000000
N2   N   0.444445258492264   0.888889295912796   0.624973210358900   1.0000000
N2   N   0.277744246355897   0.388880611033528   0.625041786111696   1.0000000
N2   N   0.611137723613661   0.388862276386339   0.625749693230145   1.0000000
N2   N   0.777788251428971   0.888909836191271   0.625036753832121   1.0000000
N2   N   0.944452915126823   0.388883103923473   0.625005533315575   1.0000000
N2   N   0.111096855463321   0.388883103923473   0.124994466684425   1.0000000
N2   N   0.277777242107690   0.888887817548709   0.125021377131228   1.0000000
N2   N   0.611116896076520   0.888903144536679   0.124994466684425   1.0000000
N2   N   0.444391219439350   0.388862276386339   0.124250306769856   1.0000000
N2   N   0.944452915126823   0.888903144536679   0.124994466684425   1.0000000
N2   N   0.777803031344302   0.388880611033528   0.124958213888304   1.0000000
N2   N   0.277771601540359   0.555556270277633   0.624941175389218   1.0000000
N2   N   0.111096855463321   0.055547084873177   0.625005533315575   1.0000000
N2   N   0.611137723613661   0.555608780560650   0.625749693230145   1.0000000
N2   N   0.444443729722360   0.055548664596055   0.624941175389218   1.0000000
N2   N   0.944451335403945   0.555556270277633   0.624941175389218   1.0000000
N2   N   0.111110704087203   0.555554741507736   0.125026789641100   1.0000000
N2   N   0.777782555590615   0.055557944461979   0.625037810861856   1.0000000
N2   N   0.277771601540359   0.055548664596055   0.125058824610782   1.0000000
N2   N   0.444438827212701   0.555561172787299   0.125026174572606   1.0000000
N2   N   0.777789012241269   0.555561172787299   0.125026174572606   1.0000000
N2   N   0.611116896076520   0.055547084873177   0.124994466684425   1.0000000
N2   N   0.444438827212701   0.555561172787299   0.624973825427394   1.0000000
N2   N   0.944442055538028   0.055557944461979   0.124962189138144   1.0000000
N2   N   0.277777242107690   0.722222757892310   0.624978622868772   1.0000000
N2   N   0.111090163808729   0.222211748571029   0.625036753832121   1.0000000
N2   N   0.444438827212701   0.222210987758731   0.624973825427394   1.0000000
N2   N   0.611119388966472   0.722255753644104   0.625041786111696   1.0000000
N2   N   0.944451335403945   0.722228398459641   0.624941175389218   1.0000000
N2   N   0.777788251428971   0.222211748571029   0.625036753832121   1.0000000
N2   N   0.111112182451291   0.722222757892310   0.125021377131228   1.0000000
N2   N   0.444443729722360   0.722228398459641   0.125058824610782   1.0000000
N2   N   0.277744246355897   0.222196968655697   0.124958213888304   1.0000000
N2   N   0.777803031344302   0.722255753644104   0.124958213888304   1.0000000
N2   N   0.611119388966472   0.222196968655697   0.124958213888304   1.0000000
N2   N   0.944442055538028   0.222217444409385   0.124962189138144   1.0000000
N2   N   0.111096855463321   0.388883103923473   0.625005533315575   1.0000000
N2   N   0.277777242107690   0.888887817548709   0.624978622868772   1.0000000
N2   N   0.611116896076520   0.888903144536679   0.625005533315575   1.0000000
N2   N   0.444391219439350   0.388862276386339   0.625749693230145   1.0000000
N2   N   0.944452915126823   0.888903144536679   0.625005533315575   1.0000000
N2   N   0.111110704087203   0.888889295912796   0.125026789641100   1.0000000
N2   N   0.777803031344302   0.388880611033528   0.625041786111696   1.0000000
N2   N   0.444445258492264   0.888889295912796   0.125026789641100   1.0000000
N2   N   0.277744246355897   0.388880611033528   0.124958213888304   1.0000000
N2   N   0.277771601540359   0.555556270277633   0.125058824610782   1.0000000
N2   N   0.611137723613661   0.388862276386339   0.124250306769856   1.0000000
N2   N   0.777788251428971   0.888909836191271   0.124963246167879   1.0000000
N2   N   0.944452915126823   0.388883103923473   0.124994466684425   1.0000000
N2   N   0.111110704087203   0.555554741507736   0.624973210358900   1.0000000
N2   N   0.277771601540359   0.055548664596055   0.624941175389218   1.0000000
N2   N   0.777789012241269   0.555561172787299   0.624973825427394   1.0000000
N2   N   0.611116896076520   0.055547084873177   0.625005533315575   1.0000000
N2   N   0.944442055538028   0.055557944461979   0.625037810861856   1.0000000
N2   N   0.054144570751783   0.110176620356241   0.375000000000000   1.0000000
N2   N   0.556574468695834   0.622676121607082   0.375000000000000   1.0000000
N2   N   0.387757695985405   0.108848725304153   0.375000000000000   1.0000000
N2   N   0.891151274695847   0.612242304014595   0.375000000000000   1.0000000
N2   N   0.722698716271122   0.110176620356241   0.375000000000000   1.0000000
N2   N   0.055556090079936   0.777779049361986   0.875000000000000   1.0000000
N2   N   0.388889625948714   0.777779049361986   0.875000000000000   1.0000000
N2   N   0.222220824325771   0.277777078829554   0.875000000000000   1.0000000
N2   N   0.722222921170447   0.777779175674228   0.875000000000000   1.0000000
N2   N   0.555553720424586   0.277773489502523   0.875000000000000   1.0000000
N2   N   0.888890507731705   0.277778557457881   0.875000000000000   1.0000000
N2   N   0.222222222222221   0.777777777777779   0.375000000000000   1.0000000
N2   N   0.054144570751783   0.277301283728877   0.375000000000000   1.0000000
N2   N   0.377323878392918   0.267231680422081   0.375000000000000   1.0000000
N2   N   0.555225094374844   0.782394301786888   0.375000000000000   1.0000000
N2   N   0.893835874078708   0.782394301786888   0.375000000000000   1.0000000
N2   N   0.724512323479348   0.275487676520652   0.375000000000000   1.0000000
N2   N   0.055555775222788   0.944444224777212   0.875000000000000   1.0000000
N2   N   0.388889625948714   0.944443909920064   0.875000000000000   1.0000000
N2   N   0.222219486768508   0.444445040962340   0.875000000000000   1.0000000
N2   N   0.555555555555557   0.444444444444443   0.875000000000000   1.0000000
N2   N   0.722221442542119   0.944445283607152   0.875000000000000   1.0000000
N2   N   0.888892220860497   0.444445040962340   0.875000000000000   1.0000000
N2   N   0.055790812468872   0.444914958271079   0.375000000000000   1.0000000
N2   N   0.221867696962777   0.943406371369827   0.375000000000000   1.0000000
N2   N   0.555085041728921   0.944209187531128   0.375000000000000   1.0000000
N2   N   0.377323878392918   0.443425531304166   0.375000000000000   1.0000000
N2   N   0.889823379643759   0.945855429248217   0.375000000000000   1.0000000
N2   N   0.732768319577919   0.443425531304166   0.375000000000000   1.0000000
N2   N   0.222220950638014   0.611110374051286   0.875000000000000   1.0000000
N2   N   0.055554716392848   0.111109492268296   0.875000000000000   1.0000000
N2   N   0.555553720424586   0.611113564255398   0.875000000000000   1.0000000
N2   N   0.388888050197933   0.111109433729208   0.875000000000000   1.0000000
N2   N   0.888890566270792   0.611111949802067   0.875000000000000   1.0000000
N2   N   0.056593628630173   0.611794658926286   0.375000000000000   1.0000000
N2   N   0.722221442542119   0.111109492268296   0.875000000000000   1.0000000
N2   N   0.217605698213112   0.106164125921292   0.375000000000000   1.0000000
N2   N   0.387757695985405   0.612242304014595   0.375000000000000   1.0000000
N2   N   0.732768319577919   0.622676121607082   0.375000000000000   1.0000000
N2   N   0.555225094374844   0.106164125921292   0.375000000000000   1.0000000
N2   N   0.388888050197933   0.611111949802067   0.875000000000000   1.0000000
N2   N   0.888888888888886   0.111111111111114   0.375000000000000   1.0000000
N2   N   0.222222222222221   0.777777777777779   0.875000000000000   1.0000000
N2   N   0.055554716392848   0.277778557457881   0.875000000000000   1.0000000
N2   N   0.388886435744602   0.277773489502523   0.875000000000000   1.0000000
N2   N   0.555554959037660   0.777780513231493   0.875000000000000   1.0000000
N2   N   0.888892220860497   0.777780513231493   0.875000000000000   1.0000000
N2   N   0.722222921170447   0.277777078829554   0.875000000000000   1.0000000
N2   N   0.056593628630173   0.778132303037223   0.375000000000000   1.0000000
N2   N   0.388205341073714   0.778132303037223   0.375000000000000   1.0000000
N2   N   0.217642019707976   0.275487676520652   0.375000000000000   1.0000000
N2   N   0.724512323479348   0.782357980292024   0.375000000000000   1.0000000
N2   N   0.556574468695834   0.267231680422081   0.375000000000000   1.0000000
N2   N   0.889823379643759   0.277301283728877   0.375000000000000   1.0000000
N2   N   0.055555775222788   0.444444883778897   0.875000000000000   1.0000000
N2   N   0.222220950638014   0.944443909920064   0.875000000000000   1.0000000
N2   N   0.555555116221103   0.944444224777212   0.875000000000000   1.0000000
N2   N   0.388886435744602   0.444446279575414   0.875000000000000   1.0000000
N2   N   0.888890507731705   0.944445283607152   0.875000000000000   1.0000000
N2   N   0.055790812468872   0.944209187531128   0.375000000000000   1.0000000
N2   N   0.722226510497477   0.444446279575414   0.875000000000000   1.0000000
N2   N   0.388205341073714   0.943406371369827   0.375000000000000   1.0000000
N2   N   0.217605698213112   0.444774905625156   0.375000000000000   1.0000000
N2   N   0.221867696962777   0.611794658926286   0.375000000000000   1.0000000
N2   N   0.722698716271122   0.945855429248217   0.375000000000000   1.0000000
N2   N   0.893835874078708   0.444774905625156   0.375000000000000   1.0000000
N2   N   0.055556090079936   0.611110374051286   0.875000000000000   1.0000000
N2   N   0.222219486768508   0.111107779139503   0.875000000000000   1.0000000
N2   N   0.722226510497477   0.611113564255398   0.875000000000000   1.0000000
N2   N   0.555554959037660   0.111107779139503   0.875000000000000   1.0000000
N2   N   0.888888888888886   0.111111111111114   0.875000000000000   1.0000000
B2   B   0.108471632755607   0.053543490614878   0.375000000000000   1.0000000
B2   B   0.625571878180632   0.584477089694600   0.375000000000000   1.0000000
B2   B   0.444050777129957   0.053709089011905   0.375000000000000   1.0000000
B2   B   0.946290910988095   0.555949222870043   0.375000000000000   1.0000000
B2   B   0.778416606060482   0.055874969696913   0.375000000000000   1.0000000
B2   B   0.111107729734589   0.722220531533955   0.875000000000000   1.0000000
B2   B   0.444448048331350   0.722219310495794   0.875000000000000   1.0000000
B2   B   0.277786281832028   0.222229176159780   0.875000000000000   1.0000000
B2   B   0.777770823840220   0.722213718167973   0.875000000000000   1.0000000
B2   B   0.611109560994417   0.222229176159780   0.875000000000000   1.0000000
B2   B   0.944444292286633   0.222221917906601   0.875000000000000   1.0000000
B2   B   0.277485665037270   0.722514334962730   0.375000000000000   1.0000000
B2   B   0.108046373332122   0.220689853332726   0.375000000000000   1.0000000
B2   B   0.442963048916902   0.219259431167133   0.375000000000000   1.0000000
B2   B   0.612779734787996   0.731165425652342   0.375000000000000   1.0000000
B2   B   0.946290910988095   0.723675021451387   0.375000000000000   1.0000000
B2   B   0.779310146667275   0.220689853332726   0.375000000000000   1.0000000
B2   B   0.111109083441861   0.888890916558139   0.875000000000000   1.0000000
B2   B   0.444448499782941   0.888890916558139   0.875000000000000   1.0000000
B2   B   0.277786281832028   0.388890439005583   0.875000000000000   1.0000000
B2   B   0.611112044445771   0.388887955554229   0.875000000000000   1.0000000
B2   B   0.777776094149349   0.888885521632020   0.875000000000000   1.0000000
B2   B   0.944441650774779   0.388886675427239   0.875000000000000   1.0000000
B2   B   0.108471632755607   0.388261475474057   0.375000000000000   1.0000000
B2   B   0.277485665037270   0.888304663407869   0.375000000000000   1.0000000
B2   B   0.611738524525943   0.891528367244393   0.375000000000000   1.0000000
B2   B   0.415522910305400   0.374428121819368   0.375000000000000   1.0000000
B2   B   0.946456509385122   0.891528367244393   0.375000000000000   1.0000000
B2   B   0.785052357531017   0.387220265212004   0.375000000000000   1.0000000
B2   B   0.277780689504206   0.555551951668650   0.875000000000000   1.0000000
B2   B   0.111111691319132   0.055558349225222   0.875000000000000   1.0000000
B2   B   0.611112044445771   0.555557422224871   0.875000000000000   1.0000000
B2   B   0.444448048331350   0.055562071168892   0.875000000000000   1.0000000
B2   B   0.944437928831108   0.555551951668650   0.875000000000000   1.0000000
B2   B   0.111270030670225   0.555873394673772   0.375000000000000   1.0000000
B2   B   0.777778082093399   0.055555707713367   0.875000000000000   1.0000000
B2   B   0.276324978548613   0.053709089011905   0.375000000000000   1.0000000
B2   B   0.442963048916902   0.557036951083098   0.375000000000000   1.0000000
B2   B   0.780740568832867   0.557036951083098   0.375000000000000   1.0000000
B2   B   0.611738524525943   0.053543490614878   0.375000000000000   1.0000000
B2   B   0.444450209627840   0.555549790372159   0.875000000000000   1.0000000
B2   B   0.944125030303087   0.055874969696913   0.375000000000000   1.0000000
B2   B   0.277779468466045   0.722220531533955   0.875000000000000   1.0000000
B2   B   0.111114478367980   0.222223905850651   0.875000000000000   1.0000000
B2   B   0.444450209627840   0.222233752589009   0.875000000000000   1.0000000
B2   B   0.611109560994417   0.722213718167973   0.875000000000000   1.0000000
B2   B   0.944437928831108   0.722219310495794   0.875000000000000   1.0000000
B2   B   0.777776094149349   0.222223905850651   0.875000000000000   1.0000000
B2   B   0.111695336592131   0.722514334962730   0.375000000000000   1.0000000
B2   B   0.444050777129957   0.723675021451387   0.375000000000000   1.0000000
B2   B   0.268834574347651   0.214947642468983   0.375000000000000   1.0000000
B2   B   0.785052357531017   0.731165425652342   0.375000000000000   1.0000000
B2   B   0.612779734787996   0.214947642468983   0.375000000000000   1.0000000
B2   B   0.944125030303087   0.221583393939518   0.375000000000000   1.0000000
B2   B   0.111111691319132   0.388886675427239   0.875000000000000   1.0000000
B2   B   0.277779468466045   0.888892270265419   0.875000000000000   1.0000000
B2   B   0.611113324572761   0.888888308680868   0.875000000000000   1.0000000
B2   B   0.444442577775129   0.388887955554229   0.875000000000000   1.0000000
B2   B   0.944441650774779   0.888888308680868   0.875000000000000   1.0000000
B2   B   0.111270030670225   0.888729969329782   0.375000000000000   1.0000000
B2   B   0.777770823840220   0.388890439005583   0.875000000000000   1.0000000
B2   B   0.444126605326228   0.888729969329782   0.375000000000000   1.0000000
B2   B   0.268834574347651   0.387220265212004   0.375000000000000   1.0000000
B2   B   0.276324978548613   0.555949222870043   0.375000000000000   1.0000000
B2   B   0.625571878180632   0.374428121819368   0.375000000000000   1.0000000
B2   B   0.779310146667275   0.891953626667878   0.375000000000000   1.0000000
B2   B   0.946456509385122   0.388261475474057   0.375000000000000   1.0000000
B2   B   0.111109083441861   0.555551500217058   0.875000000000000   1.0000000
B2   B   0.277780689504206   0.055562071168892   0.875000000000000   1.0000000
B2   B   0.777766247410990   0.555549790372159   0.875000000000000   1.0000000
B2   B   0.611113324572761   0.055558349225222   0.875000000000000   1.0000000
B2   B   0.944444292286633   0.055555707713367   0.875000000000000   1.0000000
B2   B   0.055541672869463   0.111110880156440   0.124978794394615   1.0000000
B2   B   0.555557373553653   0.611130180747918   0.124774202908672   1.0000000
B2   B   0.388893592854095   0.111120519041532   0.125031719304302   1.0000000
B2   B   0.888879480958468   0.611106407145905   0.125031719304302   1.0000000
B2   B   0.722235873953635   0.111110880156440   0.124978794394615   1.0000000
B2   B   0.055550712336230   0.777779748461076   0.624998631654403   1.0000000
B2   B   0.388895702791510   0.777779748461076   0.624998631654403   1.0000000
B2   B   0.222206301286550   0.277769817309943   0.625047065644513   1.0000000
B2   B   0.722230182690057   0.777793698713450   0.625047065644513   1.0000000
B2   B   0.555557373553653   0.277760526139063   0.625225797091328   1.0000000
B2   B   0.888889119843560   0.277764126046366   0.625021205605385   1.0000000
B2   B   0.222222222222221   0.777777777777779   0.124990916710689   1.0000000
B2   B   0.055541672869463   0.277764126046366   0.124978794394615   1.0000000
B2   B   0.388869819252082   0.277760526139063   0.124774202908672   1.0000000
B2   B   0.555571333867986   0.777789505253102   0.124994976725282   1.0000000
B2   B   0.888884838051780   0.777789505253102   0.124994976725282   1.0000000
B2   B   0.722230182690057   0.277769817309943   0.124952934355487   1.0000000
B2   B   0.055548591468595   0.944451408531405   0.625012036715458   1.0000000
B2   B   0.388895702791510   0.944449287663770   0.624998631654403   1.0000000
B2   B   0.222210494746898   0.444428666132014   0.625005023274718   1.0000000
B2   B   0.555555555555557   0.444444444444443   0.625803504734728   1.0000000
B2   B   0.722235873953635   0.944458327130537   0.625021205605385   1.0000000
B2   B   0.888884838051780   0.444428666132014   0.625005023274718   1.0000000
B2   B   0.055548591468595   0.444430516270519   0.124987963284542   1.0000000
B2   B   0.222220251538924   0.944449287663770   0.125001368345597   1.0000000
B2   B   0.555569483729481   0.944451408531405   0.124987963284542   1.0000000
B2   B   0.388869819252082   0.444442626446347   0.124774202908672   1.0000000
B2   B   0.888889119843560   0.944458327130537   0.124978794394615   1.0000000
B2   B   0.722239473860937   0.444442626446347   0.124774202908672   1.0000000
B2   B   0.222220251538924   0.611104297208490   0.624998631654403   1.0000000
B2   B   0.055541672869463   0.111110880156440   0.625021205605385   1.0000000
B2   B   0.555557373553653   0.611130180747918   0.625225797091328   1.0000000
B2   B   0.388893592854095   0.111120519041532   0.624968280695698   1.0000000
B2   B   0.888879480958468   0.611106407145905   0.624968280695698   1.0000000
B2   B   0.055550712336230   0.611104297208490   0.125001368345597   1.0000000
B2   B   0.722235873953635   0.111110880156440   0.625021205605385   1.0000000
B2   B   0.222210494746898   0.111115161948227   0.124994976725282   1.0000000
B2   B   0.388893592854095   0.611106407145905   0.125031719304302   1.0000000
B2   B   0.722239473860937   0.611130180747918   0.124774202908672   1.0000000
B2   B   0.555571333867986   0.111115161948227   0.124994976725282   1.0000000
B2   B   0.388893592854095   0.611106407145905   0.624968280695698   1.0000000
B2   B   0.888888888888886   0.111111111111114   0.124976611614230   1.0000000
B2   B   0.222222222222221   0.777777777777779   0.625009083289311   1.0000000
B2   B   0.055541672869463   0.277764126046366   0.625021205605385   1.0000000
B2   B   0.388869819252082   0.277760526139063   0.625225797091328   1.0000000
B2   B   0.555571333867986   0.777789505253102   0.625005023274718   1.0000000
B2   B   0.888884838051780   0.777789505253102   0.625005023274718   1.0000000
B2   B   0.722230182690057   0.277769817309943   0.625047065644513   1.0000000
B2   B   0.055550712336230   0.777779748461076   0.125001368345597   1.0000000
B2   B   0.388895702791510   0.777779748461076   0.125001368345597   1.0000000
B2   B   0.222206301286550   0.277769817309943   0.124952934355487   1.0000000
B2   B   0.722230182690057   0.777793698713450   0.124952934355487   1.0000000
B2   B   0.555557373553653   0.277760526139063   0.124774202908672   1.0000000
B2   B   0.888889119843560   0.277764126046366   0.124978794394615   1.0000000
B2   B   0.055548591468595   0.444430516270519   0.625012036715458   1.0000000
B2   B   0.222220251538924   0.944449287663770   0.624998631654403   1.0000000
B2   B   0.555569483729481   0.944451408531405   0.625012036715458   1.0000000
B2   B   0.388869819252082   0.444442626446347   0.625225797091328   1.0000000
B2   B   0.888889119843560   0.944458327130537   0.625021205605385   1.0000000
B2   B   0.055548591468595   0.944451408531405   0.124987963284542   1.0000000
B2   B   0.722239473860937   0.444442626446347   0.625225797091328   1.0000000
B2   B   0.388895702791510   0.944449287663770   0.125001368345597   1.0000000
B2   B   0.222210494746898   0.444428666132014   0.124994976725282   1.0000000
B2   B   0.222220251538924   0.611104297208490   0.125001368345597   1.0000000
B2   B   0.555555555555557   0.444444444444443   0.124196495265272   1.0000000
B2   B   0.722235873953635   0.944458327130537   0.124978794394615   1.0000000
B2   B   0.888884838051780   0.444428666132014   0.124994976725282   1.0000000
B2   B   0.055550712336230   0.611104297208490   0.624998631654403   1.0000000
B2   B   0.222210494746898   0.111115161948227   0.625005023274718   1.0000000
B2   B   0.722239473860937   0.611130180747918   0.625225797091328   1.0000000
B2   B   0.555571333867986   0.111115161948227   0.625005023274718   1.0000000
B2   B   0.888888888888886   0.111111111111114   0.625023388385770   1.0000000


