data_1
_audit_creation_method   'vasp2cif'
_cell_length_a    17.52789999999977
_cell_length_b    17.52789999999977
_cell_length_c    15.0
_cell_angle_alpha    90.0
_cell_angle_beta    90.0
_cell_angle_gamma    119.99999999999916

_symmetry_space_group_name_H-M    'P 1'
loop_
_atom_site_label
_atom_site_type_symbol
_atom_site_fract_x
_atom_site_fract_y
_atom_site_fract_z
_atom_site_occupancy
B2   B   0.905191717007606   0.952758976383488   0.111016768058926   1.0000000
B2   B   0.904722485682671   0.095279283188331   0.111051358799239   1.0000000
B2   B   0.904703849607106   0.238077650221803   0.111056669273277   1.0000000
B2   B   0.904714222024737   0.380884946555123   0.111011715345745   1.0000000
B2   B   0.905134769453330   0.523855529761085   0.111010766703825   1.0000000
B2   B   0.906041975679983   0.667104839280976   0.111074688691290   1.0000000
B2   B   0.906064385755319   0.810386016396445   0.111047115082383   1.0000000
B2   B   0.047703704111871   0.952298018044129   0.111013203504062   1.0000000
B2   B   0.047242729383509   0.094809985184396   0.111016769248928   1.0000000
B2   B   0.047471236420132   0.237956197677708   0.111013329174004   1.0000000
B2   B   0.047468711665155   0.380946120405027   0.111028014867554   1.0000000
B2   B   0.047260730644360   0.523861925773740   0.111018458340530   1.0000000
B2   B   0.047725463086396   0.666858975177679   0.111033590623545   1.0000000
B2   B   0.047983293639942   0.809716651188788   0.111012984540495   1.0000000
B2   B   0.190285091831213   0.952018458399063   0.111012981004493   1.0000000
B2   B   0.189615693913557   0.093937357701680   0.111047113021383   1.0000000
B2   B   0.189348625553675   0.236610429290897   0.111011079242959   1.0000000
B2   B   0.190505661920860   0.380922724357947   0.111000457459019   1.0000000
B2   B   0.189442137858668   0.524151291983952   0.111048103676116   1.0000000
B2   B   0.189641581256619   0.667099180440707   0.111063563906587   1.0000000
B2   B   0.190298193977807   0.809703442360191   0.111012579670963   1.0000000
B2   B   0.333142692284322   0.952276178272610   0.111033587740547   1.0000000
B2   B   0.332896912566026   0.093959764069013   0.111074687687293   1.0000000
B2   B   0.331512180580630   0.234463652546482   0.111024364750500   1.0000000
B2   B   0.331642344849690   0.376201972757711   0.110988111166699   1.0000000
B2   B   0.331872528017419   0.526655699801247   0.110952045491492   1.0000000
B2   B   0.331570119687913   0.668431702924086   0.111062966527998   1.0000000
B2   B   0.332902471585286   0.810360103330379   0.111063562124589   1.0000000
B2   B   0.476139718142260   0.952740860806643   0.111018463636532   1.0000000
B2   B   0.476146190659912   0.094866899771670   0.111010780723828   1.0000000
B2   B   0.475846188626161   0.236813441601502   0.111048836835674   1.0000000
B2   B   0.473154474680828   0.376781631660521   0.111059932089415   1.0000000
B2   B   0.473346029187751   0.668129234233576   0.110952045162490   1.0000000
B2   B   0.475850495027049   0.810559691970328   0.111048103651112   1.0000000
B2   B   0.619055624484973   0.952533016058849   0.111028017600557   1.0000000
B2   B   0.619116711481877   0.095287391881264   0.111011722563744   1.0000000
B2   B   0.619054739708830   0.238021623992488   0.111020826316672   1.0000000
B2   B   0.618937249762973   0.381064549516025   0.111021258358694   1.0000000
B2   B   0.623220102404480   0.526847161030173   0.111059931915410   1.0000000
B2   B   0.623799684868290   0.668359253084305   0.110988108752702   1.0000000
B2   B   0.619079000372051   0.809496101692146   0.111000455624021   1.0000000
B2   B   0.762045524924285   0.952530511829868   0.111013331528004   1.0000000
B2   B   0.761924050681196   0.095297839400896   0.111056668777275   1.0000000
B2   B   0.761918893671325   0.238082729559675   0.111061268808035   1.0000000
B2   B   0.761980108387512   0.380946984918167   0.111020819739675   1.0000000
B2   B   0.763188427493499   0.524155583358844   0.111048829601674   1.0000000
B2   B   0.765538136531517   0.668489511976369   0.111024366309495   1.0000000
B2   B   0.763391226378099   0.810653038148326   0.111011080262964   1.0000000
C2   C   0.382844984777448   0.476827418626441   0.110926400640304   1.0000000
C2   C   0.476910537188235   0.523091001554765   0.111054801971078   1.0000000
C2   C   0.522460939712633   0.477540814159366   0.111117372151064   1.0000000
C2   C   0.523174128147560   0.617156515185550   0.110926404173301   1.0000000
N2   N   0.952889753600429   0.905238417350460   0.111010361498599   1.0000000
N2   N   0.952303626306150   0.047698093822850   0.111011437831981   1.0000000
N2   N   0.952299042044215   0.190492789059600   0.111031963169640   1.0000000
N2   N   0.952300105029791   0.333256904300029   0.111016883385131   1.0000000
N2   N   0.952290546234453   0.476052759963398   0.110975060315157   1.0000000
N2   N   0.952884920307605   0.619082415119335   0.111026731527668   1.0000000
N2   N   0.953122504272213   0.762276045218560   0.111043192171945   1.0000000
N2   N   0.095283341447168   0.904718424125836   0.110979438101370   1.0000000
N2   N   0.094763297568541   0.047111972892568   0.111010372005601   1.0000000
N2   N   0.094483197202650   0.189773894214331   0.110994176613190   1.0000000
N2   N   0.095274415788547   0.333357856840124   0.110997332923626   1.0000000
N2   N   0.094554885803068   0.476155277071636   0.111020740744073   1.0000000
N2   N   0.094784615336887   0.619088019243598   0.111021303405313   1.0000000
N2   N   0.095294355366060   0.762008316348971   0.110995558615970   1.0000000
N2   N   0.237993351278026   0.904707297012938   0.110995557692967   1.0000000
N2   N   0.237725697953440   0.046879273082783   0.111043181964942   1.0000000
N2   N   0.236658912084707   0.188560766132895   0.111014433511754   1.0000000
N2   N   0.236913773711113   0.331592586595931   0.110990629200381   1.0000000
N2   N   0.237092058473224   0.476755790578349   0.110994610288997   1.0000000
N2   N   0.236743199917129   0.619515571125701   0.111054570486723   1.0000000
N2   N   0.237734882683305   0.762266766759695   0.111040530777529   1.0000000
N2   N   0.380913624347400   0.905217007882112   0.111021294121312   1.0000000
N2   N   0.380919290194663   0.047116710544399   0.111026737087672   1.0000000
N2   N   0.380457994207721   0.188577171724975   0.111047382548312   1.0000000
N2   N   0.378432479374136   0.328466407129514   0.110996067596751   1.0000000
N2   N   0.378643299129038   0.621358455705959   0.110978759189439   1.0000000
N2   N   0.380486227647291   0.763258658937871   0.111054577368720   1.0000000
N2   N   0.523846499245371   0.905446917259933   0.111020746012072   1.0000000
N2   N   0.523948896857600   0.047710997871546   0.110975078312153   1.0000000
N2   N   0.523847896664170   0.189861720879226   0.111011751259020   1.0000000
N2   N   0.523137507024490   0.331839021874629   0.111018114140885   1.0000000
N2   N   0.523245945723655   0.762909754609779   0.110994605261999   1.0000000
N2   N   0.666643898385870   0.904727368367458   0.110997331628627   1.0000000
N2   N   0.666744808189968   0.047701569352208   0.111016886096128   1.0000000
N2   N   0.666735194825510   0.190510932756249   0.111024104482053   1.0000000
N2   N   0.666605028475414   0.333396729693585   0.111000064828160   1.0000000
N2   N   0.668162913092374   0.476864268002512   0.111018109297882   1.0000000
N2   N   0.671535388059486   0.621569168775868   0.110996068904753   1.0000000
N2   N   0.668409016783066   0.763087876150894   0.110990624415380   1.0000000
N2   N   0.810227789043668   0.905518510884348   0.110994178286191   1.0000000
N2   N   0.809508980775403   0.047702741117790   0.111031966635639   1.0000000
N2   N   0.809515705231715   0.190485952199285   0.111049372290042   1.0000000
N2   N   0.809490695567751   0.333266448435491   0.111024098966053   1.0000000
N2   N   0.810140004161777   0.476153821370831   0.111011731930019   1.0000000
N2   N   0.811424661824025   0.619543756838278   0.111047381918309   1.0000000
N2   N   0.811440961711113   0.763342781578295   0.111014438263750   1.0000000


