data_1
_audit_creation_method   'vasp2cif'
_cell_length_a    14.93631414619966
_cell_length_b    14.936314146199727
_cell_length_c    13.341276283792837
_cell_angle_alpha    90.0
_cell_angle_beta    90.0
_cell_angle_gamma    119.99999999999984

_symmetry_space_group_name_H-M    'P 1'
loop_
_atom_site_label
_atom_site_type_symbol
_atom_site_fract_x
_atom_site_fract_y
_atom_site_fract_z
_atom_site_occupancy
Sb2   Sb   0.484036511801879   0.408684922567604   0.375000000000000   1.0000000
N2   N   0.111100653133895   0.055518866489079   0.125162661586305   1.0000000
N2   N   0.611107050193756   0.555574884593596   0.125974625877185   1.0000000
N2   N   0.444428320873751   0.055517861624486   0.125267831250007   1.0000000
N2   N   0.944454816822623   0.555570455893818   0.125329594063679   1.0000000
N2   N   0.777772691691171   0.055553012512254   0.125125520188600   1.0000000
N2   N   0.111116420181882   0.722224876757605   0.624821789390687   1.0000000
N2   N   0.444428320873751   0.722243792582601   0.624732168749993   1.0000000
N2   N   0.277742103499424   0.222173878112613   0.624774936994303   1.0000000
N2   N   0.777774122069592   0.722205519376694   0.624441302927068   1.0000000
N2   N   0.611086807156153   0.222202027575468   0.624531153904163   1.0000000
N2   N   0.944449308355300   0.222237130727741   0.624854004597399   1.0000000
N2   N   0.277771176128580   0.722235217355341   0.125184655798338   1.0000000
N2   N   0.111117827192265   0.222225580262797   0.125186035529037   1.0000000
N2   N   0.444429747129006   0.222181939127229   0.125569263465477   1.0000000
N2   N   0.611086807156153   0.722218112914013   0.125468846095838   1.0000000
N2   N   0.944454816822623   0.722217694262140   0.125329594063679   1.0000000
N2   N   0.777769224195340   0.222231584755258   0.125208372875264   1.0000000
N2   N   0.111110891578584   0.888864659306673   0.624820282668862   1.0000000
N2   N   0.444432196285909   0.888882764809619   0.624842325715303   1.0000000
N2   N   0.277742103499424   0.388901558720140   0.624774936994303   1.0000000
N2   N   0.611107050193756   0.388865498933488   0.624025374122814   1.0000000
N2   N   0.777769224195340   0.888870972773412   0.624791627124735   1.0000000
N2   N   0.944446698259677   0.388912935308305   0.624795478303444   1.0000000
N2   N   0.111100653133895   0.388915119978144   0.125162661586305   1.0000000
N2   N   0.277771176128580   0.888869292106568   0.125184655798338   1.0000000
N2   N   0.611094800762335   0.888886684747785   0.125172421449625   1.0000000
N2   N   0.444367762956945   0.388850548145137   0.126819783894978   1.0000000
N2   N   0.944446698259677   0.888867096284702   0.125204521696555   1.0000000
N2   N   0.777774122069592   0.388901936026226   0.125558697072932   1.0000000
N2   N   0.277766091373916   0.555585113301454   0.624733312167681   1.0000000
N2   N   0.111100653133895   0.055518866489079   0.624837338413694   1.0000000
N2   N   0.611107050193756   0.555574884593596   0.624025374122814   1.0000000
N2   N   0.444428320873751   0.055517861624486   0.624732168749993   1.0000000
N2   N   0.944454816822623   0.555570455893818   0.624670405936321   1.0000000
N2   N   0.111110891578584   0.555579565605240   0.125179717331138   1.0000000
N2   N   0.777772691691171   0.055553012512254   0.624874479811400   1.0000000
N2   N   0.277766091373916   0.055514311405798   0.125266687832319   1.0000000
N2   N   0.444429747129006   0.555581141335112   0.125569263465477   1.0000000
N2   N   0.777781877559526   0.555557605446430   0.125771933927001   1.0000000
N2   N   0.611094800762335   0.055541449347878   0.125172421449625   1.0000000
N2   N   0.444429747129006   0.555581141335112   0.624430736534523   1.0000000
N2   N   0.944449308355300   0.055545510960895   0.125145995402601   1.0000000
N2   N   0.277771176128580   0.722235217355341   0.624815344201663   1.0000000
N2   N   0.111117827192265   0.222225580262797   0.624813964470962   1.0000000
N2   N   0.444429747129006   0.222181939127229   0.624430736534523   1.0000000
N2   N   0.611086807156153   0.722218112914013   0.624531153904163   1.0000000
N2   N   0.944454816822623   0.722217694262140   0.624670405936321   1.0000000
N2   N   0.777769224195340   0.222231584755258   0.624791627124735   1.0000000
N2   N   0.111116420181882   0.722224876757605   0.125178210609312   1.0000000
N2   N   0.444428320873751   0.722243792582601   0.125267831250007   1.0000000
N2   N   0.277742103499424   0.222173878112613   0.125225063005698   1.0000000
N2   N   0.777774122069592   0.722205519376694   0.125558697072932   1.0000000
N2   N   0.611086807156153   0.222202027575468   0.125468846095838   1.0000000
N2   N   0.944449308355300   0.222237130727741   0.125145995402601   1.0000000
N2   N   0.111100653133895   0.388915119978144   0.624837338413694   1.0000000
N2   N   0.277771176128580   0.888869292106568   0.624815344201663   1.0000000
N2   N   0.611094800762335   0.888886684747785   0.624827578550374   1.0000000
N2   N   0.444367762956945   0.388850548145137   0.623180216105021   1.0000000
N2   N   0.944446698259677   0.888867096284702   0.624795478303444   1.0000000
N2   N   0.111110891578584   0.888864659306673   0.125179717331138   1.0000000
N2   N   0.777774122069592   0.388901936026226   0.624441302927068   1.0000000
N2   N   0.444432196285909   0.888882764809619   0.125157674284697   1.0000000
N2   N   0.277742103499424   0.388901558720140   0.125225063005698   1.0000000
N2   N   0.277766091373916   0.555585113301454   0.125266687832319   1.0000000
N2   N   0.611107050193756   0.388865498933488   0.125974625877185   1.0000000
N2   N   0.777769224195340   0.888870972773412   0.125208372875264   1.0000000
N2   N   0.944446698259677   0.388912935308305   0.125204521696555   1.0000000
N2   N   0.111110891578584   0.555579565605240   0.624820282668862   1.0000000
N2   N   0.277766091373916   0.055514311405798   0.624733312167681   1.0000000
N2   N   0.777781877559526   0.555557605446430   0.624228066072999   1.0000000
N2   N   0.611094800762335   0.055541449347878   0.624827578550374   1.0000000
N2   N   0.944449308355300   0.055545510960895   0.624854004597399   1.0000000
N2   N   0.055999271723928   0.111451283748178   0.375000000000000   1.0000000
N2   N   0.553208396357010   0.615414043923634   0.375000000000000   1.0000000
N2   N   0.386292291791311   0.103812304344019   0.375000000000000   1.0000000
N2   N   0.887469204677352   0.610401269005348   0.375000000000000   1.0000000
N2   N   0.722501393692036   0.110650519753650   0.375000000000000   1.0000000
N2   N   0.055552865658959   0.777781002268973   0.875000000000000   1.0000000
N2   N   0.388902609095595   0.777782286525929   0.875000000000000   1.0000000
N2   N   0.222224113993548   0.277778723663442   0.875000000000000   1.0000000
N2   N   0.722230639089238   0.777785709836974   0.875000000000000   1.0000000
N2   N   0.555564606468102   0.277784444835824   0.875000000000000   1.0000000
N2   N   0.888896303200419   0.277777646721356   0.875000000000000   1.0000000
N2   N   0.220023229785596   0.776678281559466   0.375000000000000   1.0000000
N2   N   0.055999271723928   0.277881321309086   0.375000000000000   1.0000000
N2   N   0.385766846282213   0.264668930199497   0.375000000000000   1.0000000
N2   N   0.554821982628293   0.780051962504984   0.375000000000000   1.0000000
N2   N   0.888544726924316   0.778087357427284   0.375000000000000   1.0000000
N2   N   0.722338582609665   0.276362624996079   0.375000000000000   1.0000000
N2   N   0.055555520620240   0.944450341626808   0.875000000000000   1.0000000
N2   N   0.388902609095595   0.944453655903001   0.875000000000000   1.0000000
N2   N   0.222224122508095   0.444439728469544   0.875000000000000   1.0000000
N2   N   0.555558556674585   0.444445945003957   0.875000000000000   1.0000000
N2   N   0.722232983405563   0.944451730197003   0.875000000000000   1.0000000
N2   N   0.888890801072065   0.444439473876669   0.875000000000000   1.0000000
N2   N   0.054569717102267   0.444180544853691   0.375000000000000   1.0000000
N2   N   0.219860456203405   0.941891633360183   0.375000000000000   1.0000000
N2   N   0.555056455517611   0.944194894425470   0.375000000000000   1.0000000
N2   N   0.385766846282213   0.454431249416052   0.375000000000000   1.0000000
N2   N   0.889131582528409   0.945114541540878   0.375000000000000   1.0000000
N2   N   0.722734158412570   0.444321587969133   0.375000000000000   1.0000000
N2   N   0.222226691786262   0.611106383177530   0.875000000000000   1.0000000
N2   N   0.055557563404545   0.111113941783124   0.875000000000000   1.0000000
N2   N   0.555564606468102   0.611113494965615   0.875000000000000   1.0000000
N2   N   0.388900882969714   0.111123788617893   0.875000000000000   1.0000000
N2   N   0.888886431228278   0.611109882280811   0.875000000000000   1.0000000
N2   N   0.053630469705414   0.610368374952527   0.375000000000000   1.0000000
N2   N   0.722232983405563   0.111114586541895   0.875000000000000   1.0000000
N2   N   0.220755621437586   0.108753029784133   0.375000000000000   1.0000000
N2   N   0.386292291791312   0.615813320780635   0.375000000000000   1.0000000
N2   N   0.722734158412570   0.611745903776772   0.375000000000000   1.0000000
N2   N   0.554821982628293   0.108103353456644   0.375000000000000   1.0000000
N2   N   0.388900882969714   0.611110427685164   0.875000000000000   1.0000000
N2   N   0.889386830679788   0.111360082006565   0.375000000000000   1.0000000
N2   N   0.222226217714900   0.777779775524118   0.875000000000000   1.0000000
N2   N   0.055557563404545   0.277776954954757   0.875000000000000   1.0000000
N2   N   0.388898172937952   0.277787336290756   0.875000000000000   1.0000000
N2   N   0.555568661386203   0.777784435452792   0.875000000000000   1.0000000
N2   N   0.888890801072065   0.777784660528733   0.875000000000000   1.0000000
N2   N   0.722230639089238   0.277778262585599   0.875000000000000   1.0000000
N2   N   0.053630469705414   0.776595428086223   0.375000000000000   1.0000000
N2   N   0.387173094896144   0.778652074727969   0.375000000000000   1.0000000
N2   N   0.223683571357181   0.278508452345258   0.375000000000000   1.0000000
N2   N   0.722338582609665   0.779309290946920   0.375000000000000   1.0000000
N2   N   0.553208396357010   0.271127685766711   0.375000000000000   1.0000000
N2   N   0.889131582528409   0.277350374320867   0.375000000000000   1.0000000
N2   N   0.055555520620240   0.444438512326759   0.875000000000000   1.0000000
N2   N   0.222226691786262   0.944453641942067   0.875000000000000   1.0000000
N2   N   0.555569018341094   0.944451175837211   0.875000000000000   1.0000000
N2   N   0.388898172937952   0.444444169980533   0.875000000000000   1.0000000
N2   N   0.888896303200419   0.944451989812400   0.875000000000000   1.0000000
N2   N   0.054569717102267   0.943722505581905   0.375000000000000   1.0000000
N2   N   0.722224222368781   0.444443488123608   0.875000000000000   1.0000000
N2   N   0.387173094896144   0.941854353501510   0.375000000000000   1.0000000
N2   N   0.220755621437586   0.445335924986789   0.375000000000000   1.0000000
N2   N   0.219860456203405   0.611302156176558   0.375000000000000   1.0000000
N2   N   0.722501393692036   0.945184207271722   0.375000000000000   1.0000000
N2   N   0.888544726924316   0.443790702830367   0.375000000000000   1.0000000
N2   N   0.055552865658959   0.611105196723324   0.875000000000000   1.0000000
N2   N   0.222224122508095   0.111117727371886   0.875000000000000   1.0000000
N2   N   0.722224222368781   0.611114067578511   0.875000000000000   1.0000000
N2   N   0.555568661386203   0.111117559266746   0.875000000000000   1.0000000
N2   N   0.888897413853835   0.111115373593589   0.875000000000000   1.0000000
B2   B   0.109778475339358   0.054423251821967   0.375000000000000   1.0000000
B2   B   0.620061519502459   0.577868674136464   0.375000000000000   1.0000000
B2   B   0.443376481202640   0.050829147958922   0.375000000000000   1.0000000
B2   B   0.943729886685441   0.554904297246243   0.375000000000000   1.0000000
B2   B   0.778662782532114   0.055998057932725   0.375000000000000   1.0000000
B2   B   0.111126902437967   0.722230117885647   0.875000000000000   1.0000000
B2   B   0.444445318069197   0.722265621551168   0.875000000000000   1.0000000
B2   B   0.277688242838762   0.222163660864732   0.875000000000000   1.0000000
B2   B   0.777843329218214   0.722312706971756   0.875000000000000   1.0000000
B2   B   0.611146686982026   0.222166529577336   0.875000000000000   1.0000000
B2   B   0.944446110506033   0.222206977894162   0.875000000000000   1.0000000
B2   B   0.275856742270827   0.722160678934685   0.375000000000000   1.0000000
B2   B   0.111423421874866   0.222378377604097   0.375000000000000   1.0000000
B2   B   0.440670074476015   0.210799920737278   0.375000000000000   1.0000000
B2   B   0.612334301132707   0.728840512237864   0.375000000000000   1.0000000
B2   B   0.943729886685441   0.722158922772534   0.375000000000000   1.0000000
B2   B   0.778786900354737   0.220987777323788   0.375000000000000   1.0000000
B2   B   0.111111809551519   0.888897692305579   0.875000000000000   1.0000000
B2   B   0.444456656148949   0.888894994741139   0.875000000000000   1.0000000
B2   B   0.277688242838762   0.388857915307359   0.875000000000000   1.0000000
B2   B   0.611149890848280   0.388861377821205   0.875000000000000   1.0000000
B2   B   0.777822929378138   0.888963439441988   0.875000000000000   1.0000000
B2   B   0.944471945750635   0.388866167737469   0.875000000000000   1.0000000
B2   B   0.109778475339358   0.388688556850719   0.375000000000000   1.0000000
B2   B   0.275856742270827   0.887029396669470   0.375000000000000   1.0000000
B2   B   0.611729035976393   0.890877237174604   0.375000000000000   1.0000000
B2   B   0.944345527665428   0.889686859788796   0.375000000000000   1.0000000
B2   B   0.779695189101734   0.386739687151267   0.375000000000000   1.0000000
B2   B   0.277738086879050   0.555556768838121   0.875000000000000   1.0000000
B2   B   0.111072221958978   0.055541008710180   0.875000000000000   1.0000000
B2   B   0.611149890848280   0.555621846360403   0.875000000000000   1.0000000
B2   B   0.444445318069197   0.055513029851364   0.875000000000000   1.0000000
B2   B   0.944495592216664   0.555560883695511   0.875000000000000   1.0000000
B2   B   0.109199498849993   0.555090010418978   0.375000000000000   1.0000000
B2   B   0.777810604803936   0.055571969068636   0.875000000000000   1.0000000
B2   B   0.274890432834509   0.051609818958687   0.375000000000000   1.0000000
B2   B   0.440670074476015   0.563203487072074   0.375000000000000   1.0000000
B2   B   0.778958963641123   0.556146148487230   0.375000000000000   1.0000000
B2   B   0.611729035976393   0.054185132135118   0.375000000000000   1.0000000
B2   B   0.444415204718960   0.555593577291429   0.875000000000000   1.0000000
B2   B   0.945002863690273   0.056273586601051   0.375000000000000   1.0000000
B2   B   0.277773560663768   0.722229548928296   0.875000000000000   1.0000000
B2   B   0.111049027839976   0.222191180586652   0.875000000000000   1.0000000
B2   B   0.444415204718960   0.222154960760868   0.875000000000000   1.0000000
B2   B   0.611146686982026   0.722313490738018   0.875000000000000   1.0000000
B2   B   0.944495592216664   0.722268041854490   0.875000000000000   1.0000000
B2   B   0.777822929378138   0.222192823269479   0.875000000000000   1.0000000
B2   B   0.109325938073643   0.721329635703485   0.375000000000000   1.0000000
B2   B   0.443376481202640   0.725880666577054   0.375000000000000   1.0000000
B2   B   0.274991466133123   0.218843807240808   0.375000000000000   1.0000000
B2   B   0.779695189101734   0.726288835283797   0.375000000000000   1.0000000
B2   B   0.612334301132707   0.216827122228172   0.375000000000000   1.0000000
B2   B   0.945002863690273   0.222062610422558   0.375000000000000   1.0000000
B2   B   0.111072221958978   0.388864546582126   0.875000000000000   1.0000000
B2   B   0.277773560663768   0.888877345068800   0.875000000000000   1.0000000
B2   B   0.611144025992696   0.888937749098800   0.875000000000000   1.0000000
B2   B   0.444386950823072   0.388860142078200   0.875000000000000   1.0000000
B2   B   0.944471945750635   0.888939111346495   0.875000000000000   1.0000000
B2   B   0.109199498849993   0.887442821764344   0.375000000000000   1.0000000
B2   B   0.777843329218214   0.388863955579788   0.875000000000000   1.0000000
B2   B   0.443774630054375   0.888553981693852   0.375000000000000   1.0000000
B2   B   0.274991466133123   0.389480992225644   0.375000000000000   1.0000000
B2   B   0.274890432834509   0.556613947209157   0.375000000000000   1.0000000
B2   B   0.620061519502459   0.375526178699325   0.375000000000000   1.0000000
B2   B   0.778786900354737   0.891132456364278   0.375000000000000   1.0000000
B2   B   0.944345527665428   0.387992001209961   0.375000000000000   1.0000000
B2   B   0.111111809551519   0.555547450579268   0.875000000000000   1.0000000
B2   B   0.277738086879050   0.055514651374265   0.875000000000000   1.0000000
B2   B   0.777852099864923   0.555592716599130   0.875000000000000   1.0000000
B2   B   0.611144025992696   0.055539610227226   0.875000000000000   1.0000000
B2   B   0.944446110506033   0.055572465945206   0.875000000000000   1.0000000
B2   B   0.055505071164591   0.111055866332457   0.124770253424597   1.0000000
B2   B   0.555486226838916   0.611346688360506   0.124500593002455   1.0000000
B2   B   0.388703676409342   0.110756808885635   0.124720642366435   1.0000000
B2   B   0.889185708930348   0.611259521131845   0.124782282312514   1.0000000
B2   B   0.722232149246313   0.111051729794053   0.124716494195982   1.0000000
B2   B   0.055690677242447   0.777825647880923   0.625222973216017   1.0000000
B2   B   0.388793458266359   0.777832008482864   0.625242223045104   1.0000000
B2   B   0.222006422142997   0.277669877738166   0.625359529001102   1.0000000
B2   B   0.722318306187747   0.777975401984863   0.625314804407175   1.0000000
B2   B   0.555486226838916   0.277472871811746   0.625499406997545   1.0000000
B2   B   0.888959686371652   0.277779186119479   0.625254240830318   1.0000000
B2   B   0.222218608579909   0.777775970956623   0.124787135331674   1.0000000
B2   B   0.055505071164591   0.277782538165469   0.124770253424597   1.0000000
B2   B   0.388505098133666   0.277286643510651   0.124752960713170   1.0000000
B2   B   0.555480815957321   0.777933320364559   0.124698166691988   1.0000000
B2   B   0.889101288190031   0.777926413088538   0.124760721856407   1.0000000
B2   B   0.722318306187747   0.277676237536221   0.124685195592824   1.0000000
B2   B   0.055586795615698   0.944410988332334   0.625233398662834   1.0000000
B2   B   0.388793458266359   0.944294783116829   0.625242223045104   1.0000000
B2   B   0.222046315552711   0.444514498723670   0.625295558814704   1.0000000
B2   B   0.555701998760519   0.444517666046924   0.625249240758239   1.0000000
B2   B   0.722232149246313   0.944513752785596   0.625283505804018   1.0000000
B2   B   0.889101288190031   0.444508208434828   0.625239278143593   1.0000000
B2   B   0.055586795615698   0.444509140616692   0.124766601337166   1.0000000
B2   B   0.222166300873989   0.944299251594966   0.124791682892172   1.0000000
B2   B   0.555493551524773   0.944413442429051   0.124720476952816   1.0000000
B2   B   0.388505098133666   0.444551787956352   0.124752960713170   1.0000000
B2   B   0.888959686371652   0.944513833585509   0.124745759169681   1.0000000
B2   B   0.722507066321672   0.444507680546769   0.124668754879635   1.0000000
B2   B   0.222166300873989   0.611200382612358   0.625208317107828   1.0000000
B2   B   0.055505071164591   0.111055866332457   0.625229746575402   1.0000000
B2   B   0.555486226838916   0.611346688360506   0.625499406997545   1.0000000
B2   B   0.388703676409342   0.110756808885635   0.625279357633565   1.0000000
B2   B   0.889185708930348   0.611259521131845   0.625217717687486   1.0000000
B2   B   0.055690677242447   0.611198362694859   0.124777026783983   1.0000000
B2   B   0.722232149246313   0.111051729794053   0.625283505804018   1.0000000
B2   B   0.222046315552711   0.110865150162376   0.124704441185296   1.0000000
B2   B   0.388703676409342   0.611280200857050   0.124720642366435   1.0000000
B2   B   0.722507066321672   0.611332719108238   0.124668754879635   1.0000000
B2   B   0.555480815957321   0.110880828926097   0.124698166691988   1.0000000
B2   B   0.388703676409342   0.611280200857050   0.625279357633565   1.0000000
B2   B   0.888906312692048   0.111119823012695   0.124762813411853   1.0000000
B2   B   0.222218608579909   0.777775970956623   0.625212864668325   1.0000000
B2   B   0.055505071164591   0.277782538165469   0.625229746575402   1.0000000
B2   B   0.388505098133666   0.277286643510651   0.625247039286830   1.0000000
B2   B   0.555480815957321   0.777933320364559   0.625301833308011   1.0000000
B2   B   0.889101288190031   0.777926413088538   0.625239278143593   1.0000000
B2   B   0.722318306187747   0.277676237536221   0.625314804407175   1.0000000
B2   B   0.055690677242447   0.777825647880923   0.124777026783983   1.0000000
B2   B   0.388793458266359   0.777832008482864   0.124757776954895   1.0000000
B2   B   0.222006422142997   0.277669877738166   0.124640470998898   1.0000000
B2   B   0.722318306187747   0.777975401984863   0.124685195592824   1.0000000
B2   B   0.555486226838916   0.277472871811746   0.124500593002455   1.0000000
B2   B   0.888959686371652   0.277779186119479   0.124745759169681   1.0000000
B2   B   0.055586795615698   0.444509140616692   0.625233398662834   1.0000000
B2   B   0.222166300873989   0.944299251594966   0.625208317107828   1.0000000
B2   B   0.555493551524773   0.944413442429051   0.625279523047183   1.0000000
B2   B   0.388505098133666   0.444551787956352   0.625247039286830   1.0000000
B2   B   0.888959686371652   0.944513833585509   0.625254240830318   1.0000000
B2   B   0.055586795615698   0.944410988332334   0.124766601337166   1.0000000
B2   B   0.722507066321672   0.444507680546769   0.625331245120365   1.0000000
B2   B   0.388793458266359   0.944294783116829   0.124757776954895   1.0000000
B2   B   0.222046315552711   0.444514498723670   0.124704441185296   1.0000000
B2   B   0.222166300873989   0.611200382612358   0.124791682892172   1.0000000
B2   B   0.555701998760519   0.444517666046924   0.124750759241761   1.0000000
B2   B   0.722232149246313   0.944513752785596   0.124716494195982   1.0000000
B2   B   0.889101288190031   0.444508208434828   0.124760721856407   1.0000000
B2   B   0.055690677242447   0.611198362694859   0.625222973216017   1.0000000
B2   B   0.222046315552711   0.110865150162376   0.625295558814704   1.0000000
B2   B   0.722507066321672   0.611332719108238   0.625331245120365   1.0000000
B2   B   0.555480815957321   0.110880828926096   0.625301833308012   1.0000000
B2   B   0.888906312692048   0.111119823012695   0.625237186588146   1.0000000


