data_1
_audit_creation_method   'vasp2cif'
_cell_length_a    17.52789999999977
_cell_length_b    17.52789999999977
_cell_length_c    15.0
_cell_angle_alpha    90.0
_cell_angle_beta    90.0
_cell_angle_gamma    119.99999999999916

_symmetry_space_group_name_H-M    'P 1'
loop_
_atom_site_label
_atom_site_type_symbol
_atom_site_fract_x
_atom_site_fract_y
_atom_site_fract_z
_atom_site_occupancy
B2   B   0.904334118301231   0.951094049103534   0.115066930741365   1.0000000
B2   B   0.905629482157619   0.094553641972366   0.116426116658026   1.0000000
B2   B   0.906034806020146   0.237502436339748   0.116539794580779   1.0000000
B2   B   0.905922063223788   0.380375263884409   0.115517069557758   1.0000000
B2   B   0.904663133564096   0.523056420245892   0.113936668721360   1.0000000
B2   B   0.902955257478060   0.665330521803530   0.113278186542909   1.0000000
B2   B   0.902148706495297   0.807009181324535   0.113714817937211   1.0000000
B2   B   0.047638476365001   0.952494243486333   0.116496699051042   1.0000000
B2   B   0.049050939196326   0.095817916412452   0.115040915104243   1.0000000
B2   B   0.049316415459468   0.238343406605966   0.113313939434515   1.0000000
B2   B   0.048818337691142   0.380947188460890   0.112622011332082   1.0000000
B2   B   0.047706793190585   0.523790026293184   0.113574573410207   1.0000000
B2   B   0.046801580174389   0.666567507084006   0.115049459981007   1.0000000
B2   B   0.046731466357413   0.809326417691262   0.116439135002005   1.0000000
B2   B   0.190790195268080   0.953414069132042   0.116179339269008   1.0000000
B2   B   0.193099981307996   0.097989211227461   0.113547072840009   1.0000000
B2   B   0.193668118256120   0.240500601536855   0.109595792474974   1.0000000
B2   B   0.192270486157098   0.381821723593107   0.106268099643096   1.0000000
B2   B   0.190372097471597   0.524413409503713   0.106829416326485   1.0000000
B2   B   0.189801881585549   0.667210405065365   0.110976835021419   1.0000000
B2   B   0.190021508023179   0.810103704678037   0.115146426472779   1.0000000
B2   B   0.333547663409229   0.953322437503040   0.114351687980487   1.0000000
B2   B   0.334765414880718   0.097161423573075   0.112787336064749   1.0000000
B2   B   0.339619375245030   0.244347517490734   0.108223816259742   1.0000000
B2   B   0.338139504595807   0.384885659106160   0.103510677355736   1.0000000
B2   B   0.332802786254233   0.525899030504687   0.100494329279889   1.0000000
B2   B   0.332286087877165   0.667875411574476   0.103907045677662   1.0000000
B2   B   0.332937042212510   0.810340951657979   0.110588291804845   1.0000000
B2   B   0.476346525177667   0.952448889814558   0.112770145231950   1.0000000
B2   B   0.477054516686853   0.095471054828001   0.113082746553433   1.0000000
B2   B   0.478364850739952   0.239101561617336   0.109065403280424   1.0000000
B2   B   0.489984805806282   0.391693959024110   0.104966842468125   1.0000000
B2   B   0.474308973828090   0.667403680734694   0.100575812328111   1.0000000
B2   B   0.475768276927765   0.809806415728720   0.106623558395575   1.0000000
B2   B   0.619230326604187   0.951352911158238   0.112215612559426   1.0000000
B2   B   0.619764898541847   0.094222849458870   0.114835793688903   1.0000000
B2   B   0.620354151302744   0.236723617366353   0.112086170446676   1.0000000
B2   B   0.621534222471578   0.378583306759662   0.107662137285137   1.0000000
B2   B   0.608417287672450   0.510149010072023   0.105054546285381   1.0000000
B2   B   0.615296084121653   0.662042609500240   0.103614008071029   1.0000000
B2   B   0.618369089307838   0.807902119887402   0.106294439550255   1.0000000
B2   B   0.761830262225335   0.950858149647944   0.113178071396602   1.0000000
B2   B   0.762667925999046   0.094147678334264   0.116347731650741   1.0000000
B2   B   0.763102158534688   0.237046697365380   0.116021107646755   1.0000000
B2   B   0.763403762638153   0.379763621192534   0.112493877944923   1.0000000
B2   B   0.761012164480487   0.521748131208136   0.109457217943762   1.0000000
B2   B   0.755782487520380   0.660508891815914   0.108443836217192   1.0000000
B2   B   0.759647797840613   0.806471326517037   0.109698910562748   1.0000000
N2   N   0.951498460681296   0.903229579413136   0.115651452758068   1.0000000
N2   N   0.953194719682719   0.046954027504608   0.116110178119450   1.0000000
N2   N   0.953794342011397   0.190030284319670   0.116311138006685   1.0000000
N2   N   0.953641221254139   0.332868112020039   0.115566261296718   1.0000000
N2   N   0.952655521492490   0.475712615617278   0.114964325081399   1.0000000
N2   N   0.951420515177769   0.618403822596432   0.114585505383706   1.0000000
N2   N   0.950931160598031   0.760702713554661   0.114830830109345   1.0000000
N2   N   0.095174513511329   0.904975667293374   0.117233585698146   1.0000000
N2   N   0.096898871257900   0.048643455056879   0.115607322538094   1.0000000
N2   N   0.097691514621687   0.191503284382033   0.112765137354796   1.0000000
N2   N   0.096913470747860   0.333672295829367   0.110536129353690   1.0000000
N2   N   0.095527442000351   0.476300371596206   0.111579248425380   1.0000000
N2   N   0.094679874266580   0.619160547075381   0.113541081672438   1.0000000
N2   N   0.094587765541189   0.762000463916850   0.116179136784576   1.0000000
N2   N   0.238164264571519   0.905591849991061   0.115739357826056   1.0000000
N2   N   0.239423604509825   0.049211396288383   0.114506505160747   1.0000000
N2   N   0.242788778891129   0.194482482205428   0.110151511041198   1.0000000
N2   N   0.241897448307376   0.336007863344254   0.105908196101389   1.0000000
N2   N   0.238296219074994   0.476984968177639   0.103050567676214   1.0000000
N2   N   0.237371711561440   0.619698778875656   0.106583249047243   1.0000000
N2   N   0.237642621382570   0.762534410573287   0.112474242975538   1.0000000
N2   N   0.380989269241287   0.905496808029583   0.112785734578556   1.0000000
N2   N   0.381713295729837   0.048697776898178   0.113804622919495   1.0000000
N2   N   0.383452119620732   0.193006438516016   0.109808390742394   1.0000000
N2   N   0.391191760334249   0.342602884012608   0.105153735234484   1.0000000
N2   N   0.382667591630849   0.480309667352855   0.100229292301800   1.0000000
N2   N   0.379728510771212   0.620496379166967   0.100075211834794   1.0000000
N2   N   0.380516328108824   0.762828688462928   0.106273658336248   1.0000000
N2   N   0.523880734607436   0.904667405048366   0.111102091168259   1.0000000
N2   N   0.524427497311619   0.047499665012806   0.113949982544134   1.0000000
N2   N   0.525184833649690   0.190494907046960   0.111227316822402   1.0000000
N2   N   0.527117066284608   0.334102546208183   0.106645196787564   1.0000000
N2   N   0.519876904528368   0.617511264084778   0.100234778741218   1.0000000
N2   N   0.523198680379283   0.761897513365000   0.103215222713619   1.0000000
N2   N   0.666512622180625   0.903274683156983   0.110286725850872   1.0000000
N2   N   0.667285693997895   0.046521048844272   0.115129960909991   1.0000000
N2   N   0.667811293102840   0.189230372430447   0.114934248938733   1.0000000
N2   N   0.668617831292281   0.331488150817353   0.110233919483732   1.0000000
N2   N   0.665991147426189   0.472982267402240   0.106781174999010   1.0000000
N2   N   0.657522390178779   0.608942760673487   0.105318588377669   1.0000000
N2   N   0.664170142224169   0.758259703843584   0.106027343013063   1.0000000
N2   N   0.808644343470775   0.902465685736440   0.112802354143293   1.0000000
N2   N   0.810121394360238   0.046352579906954   0.116173708631231   1.0000000
N2   N   0.810681474006772   0.189472693574319   0.117233235321989   1.0000000
N2   N   0.810876438595766   0.332299379411953   0.115418374018758   1.0000000
N2   N   0.809618320557598   0.474925442383340   0.111863812745823   1.0000000
N2   N   0.807114721501791   0.616659458889112   0.110181708632634   1.0000000
N2   N   0.805658313194105   0.757348315583105   0.110311295761861   1.0000000
C2   C   0.472973026352114   0.527258186316327   0.100258416396965   1.0000000


