data_1
_audit_creation_method   'vasp2cif'
_cell_length_a    14.93631414619966
_cell_length_b    14.936314146199727
_cell_length_c    13.341276283792837
_cell_angle_alpha    90.0
_cell_angle_beta    90.0
_cell_angle_gamma    119.99999999999984

_symmetry_space_group_name_H-M    'P 1'
loop_
_atom_site_label
_atom_site_type_symbol
_atom_site_fract_x
_atom_site_fract_y
_atom_site_fract_z
_atom_site_occupancy
Se2   Se   0.444444444444443   0.388888888888886   0.375000000000000   1.0000000
N2   N   0.111133140049903   0.055593694213217   0.125199838515934   1.0000000
N2   N   0.611048417040961   0.555512211022960   0.124149336518278   1.0000000
N2   N   0.444460554163314   0.055593694213217   0.125199838515934   1.0000000
N2   N   0.944423753856961   0.555544159928527   0.124915170285755   1.0000000
N2   N   0.777777777777779   0.055555555555557   0.124828463820419   1.0000000
N2   N   0.111111111111114   0.722222222222221   0.625120325299003   1.0000000
N2   N   0.444460554163314   0.722200193283433   0.624800161484068   1.0000000
N2   N   0.277821122310372   0.222284916292374   0.625850663481726   1.0000000
N2   N   0.777739639120118   0.722200193283433   0.624800161484068   1.0000000
N2   N   0.611109002613818   0.222224330719515   0.624842724425666   1.0000000
N2   N   0.944439384629066   0.222218754486849   0.625161226201756   1.0000000
N2   N   0.277789173404807   0.722212927261769   0.124915170285755   1.0000000
N2   N   0.111115328105700   0.222224330719515   0.125157275574331   1.0000000
N2   N   0.444463793982001   0.222284916292374   0.124149336518278   1.0000000
N2   N   0.611109002613818   0.722218005227634   0.125157275574331   1.0000000
N2   N   0.944423753856961   0.722212927261769   0.124915170285755   1.0000000
N2   N   0.777779369857783   0.222218754486849   0.124838773798244   1.0000000
N2   N   0.111120406071569   0.888909579476368   0.625084829714242   1.0000000
N2   N   0.444461367079987   0.888897350206656   0.625181137069202   1.0000000
N2   N   0.277821122310372   0.388869539351328   0.625850663481726   1.0000000
N2   N   0.611048417040961   0.388869539351328   0.625850663481726   1.0000000
N2   N   0.777779369857783   0.888893948704262   0.625161226201756   1.0000000
N2   N   0.944435983126673   0.388871966253342   0.625181137069202   1.0000000
N2   N   0.111133140049903   0.388872779170015   0.125199838515934   1.0000000
N2   N   0.277789173404807   0.888909579476368   0.124915170285755   1.0000000
N2   N   0.611114578846488   0.888893948704262   0.124838773798244   1.0000000
N2   N   0.444444444444443   0.388888888888886   0.116386774282032   1.0000000
N2   N   0.944435983126673   0.888897350206656   0.124818862930796   1.0000000
N2   N   0.777739639120118   0.388872779170015   0.125199838515934   1.0000000
N2   N   0.277795729565288   0.555537603768045   0.624790713512711   1.0000000
N2   N   0.111133140049903   0.055593694213217   0.624800161484068   1.0000000
N2   N   0.611048417040961   0.555512211022960   0.625850663481726   1.0000000
N2   N   0.444460554163314   0.055593694213217   0.624800161484068   1.0000000
N2   N   0.944423753856961   0.555544159928527   0.625084829714242   1.0000000
N2   N   0.111120406071569   0.555544159928527   0.124915170285755   1.0000000
N2   N   0.777777777777779   0.055555555555557   0.625171536179581   1.0000000
N2   N   0.277795729565288   0.055591459130578   0.125209286487292   1.0000000
N2   N   0.444463793982001   0.555512211022960   0.124149336518278   1.0000000
N2   N   0.777741874202760   0.555537603768045   0.125209286487292   1.0000000
N2   N   0.611114578846488   0.055553963475554   0.124838773798244   1.0000000
N2   N   0.444463793982001   0.555512211022960   0.625850663481726   1.0000000
N2   N   0.944439384629066   0.055553963475554   0.124838773798244   1.0000000
N2   N   0.277789173404807   0.722212927261769   0.625084829714242   1.0000000
N2   N   0.111115328105700   0.222224330719515   0.624842724425666   1.0000000
N2   N   0.444463793982001   0.222284916292374   0.625850663481726   1.0000000
N2   N   0.611109002613818   0.722218005227634   0.624842724425666   1.0000000
N2   N   0.944423753856961   0.722212927261769   0.625084829714242   1.0000000
N2   N   0.777779369857783   0.222218754486849   0.625161226201756   1.0000000
N2   N   0.111111111111114   0.722222222222221   0.124879674700993   1.0000000
N2   N   0.444460554163314   0.722200193283433   0.125199838515934   1.0000000
N2   N   0.277821122310372   0.222284916292374   0.124149336518278   1.0000000
N2   N   0.777739639120118   0.722200193283433   0.125199838515934   1.0000000
N2   N   0.611109002613818   0.222224330719515   0.125157275574331   1.0000000
N2   N   0.944439384629066   0.222218754486849   0.124838773798244   1.0000000
N2   N   0.111133140049903   0.388872779170015   0.624800161484068   1.0000000
N2   N   0.277789173404807   0.888909579476368   0.625084829714242   1.0000000
N2   N   0.611114578846488   0.888893948704262   0.625161226201756   1.0000000
N2   N   0.444444444444443   0.388888888888886   0.633613225717968   1.0000000
N2   N   0.944435983126673   0.888897350206656   0.625181137069202   1.0000000
N2   N   0.111120406071569   0.888909579476368   0.124915170285755   1.0000000
N2   N   0.777739639120118   0.388872779170015   0.624800161484068   1.0000000
N2   N   0.444461367079987   0.888897350206656   0.124818862930796   1.0000000
N2   N   0.277821122310372   0.388869539351328   0.124149336518278   1.0000000
N2   N   0.277795729565288   0.555537603768045   0.125209286487292   1.0000000
N2   N   0.611048417040961   0.388869539351328   0.124149336518278   1.0000000
N2   N   0.777779369857783   0.888893948704262   0.124838773798244   1.0000000
N2   N   0.944435983126673   0.388871966253342   0.124818862930796   1.0000000
N2   N   0.111120406071569   0.555544159928527   0.625084829714242   1.0000000
N2   N   0.277795729565288   0.055591459130578   0.624790713512711   1.0000000
N2   N   0.777741874202760   0.555537603768045   0.624790713512711   1.0000000
N2   N   0.611114578846488   0.055553963475554   0.625161226201756   1.0000000
N2   N   0.944439384629066   0.055553963475554   0.625161226201756   1.0000000
N2   N   0.054132307550540   0.110207002851320   0.375000000000000   1.0000000
N2   N   0.556054166438970   0.612108332877941   0.375000000000000   1.0000000
N2   N   0.387140333138429   0.101767518107193   0.375000000000000   1.0000000
N2   N   0.892213232627532   0.612773282980438   0.375000000000000   1.0000000
N2   N   0.722486789393465   0.110846543939879   0.375000000000000   1.0000000
N2   N   0.055560274487113   0.777773058846221   0.875000000000000   1.0000000
N2   N   0.388893064907033   0.777773466319661   0.875000000000000   1.0000000
N2   N   0.222227506250898   0.277780419792115   0.875000000000000   1.0000000
N2   N   0.722222526538477   0.777766715900767   0.875000000000000   1.0000000
N2   N   0.555552913541223   0.277780419792115   0.875000000000000   1.0000000
N2   N   0.888889542538686   0.277779085077374   0.875000000000000   1.0000000
N2   N   0.221570592406884   0.777451962870109   0.375000000000000   1.0000000
N2   N   0.054132307550540   0.277258638032555   0.375000000000000   1.0000000
N2   N   0.373000933233703   0.246001866467413   0.375000000000000   1.0000000
N2   N   0.556074695300784   0.779201025782796   0.375000000000000   1.0000000
N2   N   0.891518498990770   0.779866076985787   0.375000000000000   1.0000000
N2   N   0.723126330482012   0.277258638032555   0.375000000000000   1.0000000
N2   N   0.055559867013677   0.944452931920717   0.875000000000000   1.0000000
N2   N   0.388893064907033   0.944452931920717   0.875000000000000   1.0000000
N2   N   0.222208189862945   0.444444191268480   0.875000000000000   1.0000000
N2   N   0.555582771704019   0.444458052518674   0.875000000000000   1.0000000
N2   N   0.722224623398516   0.944449246797033   0.875000000000000   1.0000000
N2   N   0.888880401412612   0.444440268426296   0.875000000000000   1.0000000
N2   N   0.053467256347551   0.444985755338321   0.375000000000000   1.0000000
N2   N   0.220560050352899   0.941120100705797   0.375000000000000   1.0000000
N2   N   0.555979110353016   0.944656221843173   0.375000000000000   1.0000000
N2   N   0.373000933233703   0.460332400099626   0.375000000000000   1.0000000
N2   N   0.888677111490155   0.944656221843173   0.375000000000000   1.0000000
N2   N   0.731565815226141   0.446193000194900   0.375000000000000   1.0000000
N2   N   0.222221796924475   0.611111536408861   0.875000000000000   1.0000000
N2   N   0.055566617432564   0.111110806794856   0.875000000000000   1.0000000
N2   N   0.555552913541223   0.611105827082441   0.875000000000000   1.0000000
N2   N   0.388889142064848   0.111097331927801   0.875000000000000   1.0000000
N2   N   0.888889739484372   0.611111536408861   0.875000000000000   1.0000000
N2   N   0.055881370463227   0.611762740926451   0.375000000000000   1.0000000
N2   N   0.722224623398516   0.111108709934819   0.875000000000000   1.0000000
N2   N   0.214627184968755   0.101767518107193   0.375000000000000   1.0000000
N2   N   0.387140333138429   0.618706148364580   0.375000000000000   1.0000000
N2   N   0.731565815226140   0.618706148364580   0.375000000000000   1.0000000
N2   N   0.556074695300784   0.110207002851320   0.375000000000000   1.0000000
N2   N   0.388889142064848   0.611125143470389   0.875000000000000   1.0000000
N2   N   0.888359754546421   0.110846543939879   0.375000000000000   1.0000000
N2   N   0.222212784359109   0.777773058846221   0.875000000000000   1.0000000
N2   N   0.055566617432564   0.277789143971045   0.875000000000000   1.0000000
N2   N   0.388875280814655   0.277750561629315   0.875000000000000   1.0000000
N2   N   0.555544189362294   0.777766715900767   0.875000000000000   1.0000000
N2   N   0.888880401412612   0.777773466319661   0.875000000000000   1.0000000
N2   N   0.722222526538477   0.277789143971045   0.875000000000000   1.0000000
N2   N   0.055881370463227   0.777451962870109   0.375000000000000   1.0000000
N2   N   0.388347577995007   0.779866076985787   0.375000000000000   1.0000000
N2   N   0.221225000455395   0.277279166894365   0.375000000000000   1.0000000
N2   N   0.723126330482012   0.779201025782796   0.375000000000000   1.0000000
N2   N   0.556054166438970   0.277279166894365   0.375000000000000   1.0000000
N2   N   0.888677111490155   0.277354222980323   0.375000000000000   1.0000000
N2   N   0.055559867013677   0.444440268426296   0.875000000000000   1.0000000
N2   N   0.222221796924475   0.944443593848956   0.875000000000000   1.0000000
N2   N   0.555554248255966   0.944443790794643   0.875000000000000   1.0000000
N2   N   0.388875280814655   0.444458052518674   0.875000000000000   1.0000000
N2   N   0.888889542538686   0.944443790794643   0.875000000000000   1.0000000
N2   N   0.053467256347551   0.941814834342559   0.375000000000000   1.0000000
N2   N   0.722236001405538   0.444444191268480   0.875000000000000   1.0000000
N2   N   0.388347577995007   0.941814834342559   0.375000000000000   1.0000000
N2   N   0.214627184968755   0.446193000194900   0.375000000000000   1.0000000
N2   N   0.220560050352899   0.612773282980438   0.375000000000000   1.0000000
N2   N   0.587331466865923   0.460332400099626   0.375000000000000   1.0000000
N2   N   0.722486789393465   0.944973578786908   0.375000000000000   1.0000000
N2   N   0.891518498990770   0.444985755338321   0.375000000000000   1.0000000
N2   N   0.055560274487113   0.611120548974224   0.875000000000000   1.0000000
N2   N   0.222208189862945   0.111097331927801   0.875000000000000   1.0000000
N2   N   0.722236001405538   0.611125143470389   0.875000000000000   1.0000000
N2   N   0.555544189362294   0.111110806794856   0.875000000000000   1.0000000
N2   N   0.888884086536295   0.111108709934819   0.875000000000000   1.0000000
B2   B   0.106567137943046   0.051275020438069   0.375000000000000   1.0000000
B2   B   0.621835812033231   0.563689567996634   0.375000000000000   1.0000000
B2   B   0.444707882495023   0.051275020438069   0.375000000000000   1.0000000
B2   B   0.945789725638690   0.555982949522887   0.375000000000000   1.0000000
B2   B   0.777777777777779   0.055555555555557   0.375000000000000   1.0000000
B2   B   0.111111111111114   0.722222222222221   0.875000000000000   1.0000000
B2   B   0.444436223569921   0.722189951481699   0.875000000000000   1.0000000
B2   B   0.277814569860814   0.222287523927984   0.875000000000000   1.0000000
B2   B   0.777753727911777   0.722189951481699   0.875000000000000   1.0000000
B2   B   0.611057345469642   0.222275987863693   0.875000000000000   1.0000000
B2   B   0.944437625998451   0.222258855913557   0.875000000000000   1.0000000
B2   B   0.277350383810448   0.723140109449136   0.375000000000000   1.0000000
B2   B   0.110590314063139   0.221961823698235   0.375000000000000   1.0000000
B2   B   0.441853755963399   0.211497521300103   0.375000000000000   1.0000000
B2   B   0.611371509635104   0.722743019270196   0.375000000000000   1.0000000
B2   B   0.945789725638690   0.723140109449136   0.375000000000000   1.0000000
B2   B   0.777855230845707   0.221671161999923   0.375000000000000   1.0000000
B2   B   0.111168378549471   0.888926775792670   0.875000000000000   1.0000000
B2   B   0.444491073091261   0.888912203212296   0.875000000000000   1.0000000
B2   B   0.277814569860814   0.388860379266158   0.875000000000000   1.0000000
B2   B   0.611045809405351   0.388860379266158   0.875000000000000   1.0000000
B2   B   0.777821229915106   0.888895707334878   0.875000000000000   1.0000000
B2   B   0.944421130121033   0.388842260242068   0.875000000000000   1.0000000
B2   B   0.106567137943046   0.388625450838306   0.375000000000000   1.0000000
B2   B   0.277350383810448   0.887543607694638   0.375000000000000   1.0000000
B2   B   0.611662171333410   0.889517402179111   0.375000000000000   1.0000000
B2   B   0.944211185795533   0.889122147537796   0.375000000000000   1.0000000
B2   B   0.782058312895265   0.388625450838306   0.375000000000000   1.0000000
B2   B   0.277768381965940   0.555564951367395   0.875000000000000   1.0000000
B2   B   0.111143381851637   0.055579605421557   0.875000000000000   1.0000000
B2   B   0.611045809405351   0.555518763472524   0.875000000000000   1.0000000
B2   B   0.444436223569921   0.055579605421557   0.875000000000000   1.0000000
B2   B   0.944406557540658   0.555574936090131   0.875000000000000   1.0000000
B2   B   0.110193223884197   0.555982949522887   0.375000000000000   1.0000000
B2   B   0.777777777777779   0.055555555555557   0.875000000000000   1.0000000
B2   B   0.275518554149784   0.051037108299567   0.375000000000000   1.0000000
B2   B   0.441853755963399   0.563689567996634   0.375000000000000   1.0000000
B2   B   0.782296225033767   0.557814779183549   0.375000000000000   1.0000000
B2   B   0.611662171333410   0.055478102487629   0.375000000000000   1.0000000
B2   B   0.444472954067170   0.555518763472524   0.875000000000000   1.0000000
B2   B   0.943815931154218   0.055478102487629   0.375000000000000   1.0000000
B2   B   0.277758397243203   0.722164954783861   0.875000000000000   1.0000000
B2   B   0.111218642394057   0.222275987863693   0.875000000000000   1.0000000
B2   B   0.444472954067170   0.222287523927984   0.875000000000000   1.0000000
B2   B   0.611057345469642   0.722114690939274   0.875000000000000   1.0000000
B2   B   0.944406557540658   0.722164954783861   0.875000000000000   1.0000000
B2   B   0.777821229915106   0.222258855913557   0.875000000000000   1.0000000
B2   B   0.111111111111114   0.722222222222221   0.375000000000000   1.0000000
B2   B   0.444707882495023   0.726766195390292   0.375000000000000   1.0000000
B2   B   0.269643765336704   0.211497521300103   0.375000000000000   1.0000000
B2   B   0.782058312895265   0.726766195390292   0.375000000000000   1.0000000
B2   B   0.611371509635104   0.221961823698235   0.375000000000000   1.0000000
B2   B   0.943815931154218   0.221671161999923   0.375000000000000   1.0000000
B2   B   0.111143381851637   0.388897109763408   0.875000000000000   1.0000000
B2   B   0.277758397243203   0.888926775792670   0.875000000000000   1.0000000
B2   B   0.611074477419779   0.888895707334878   0.875000000000000   1.0000000
B2   B   0.444444444444443   0.388888888888886   0.875000000000000   1.0000000
B2   B   0.944421130121033   0.888912203212296   0.875000000000000   1.0000000
B2   B   0.110193223884197   0.887543607694638   0.375000000000000   1.0000000
B2   B   0.777753727911777   0.388897109763408   0.875000000000000   1.0000000
B2   B   0.444910961742264   0.889122147537796   0.375000000000000   1.0000000
B2   B   0.269643765336704   0.391479577369930   0.375000000000000   1.0000000
B2   B   0.275518554149784   0.557814779183549   0.375000000000000   1.0000000
B2   B   0.621835812033231   0.391479577369930   0.375000000000000   1.0000000
B2   B   0.777855230845707   0.889517402179111   0.375000000000000   1.0000000
B2   B   0.944211185795533   0.388422371591065   0.375000000000000   1.0000000
B2   B   0.111168378549471   0.555574936090131   0.875000000000000   1.0000000
B2   B   0.277768381965940   0.055536763931884   0.875000000000000   1.0000000
B2   B   0.777796569401455   0.555564951367395   0.875000000000000   1.0000000
B2   B   0.611074477419779   0.055512103418230   0.875000000000000   1.0000000
B2   B   0.944437625998451   0.055512103418230   0.875000000000000   1.0000000
B2   B   0.055652605755273   0.111176736117637   0.125193610949376   1.0000000
B2   B   0.555450200824642   0.610900401649283   0.124829829237179   1.0000000
B2   B   0.388984123336448   0.111347361985572   0.125296404574616   1.0000000
B2   B   0.888745706039084   0.611039519686215   0.125114313882884   1.0000000
B2   B   0.722228191530318   0.111105141803019   0.124899444044711   1.0000000
B2   B   0.055553970922740   0.777779362410599   0.625084063270297   1.0000000
B2   B   0.388950060351029   0.777718988027770   0.624946690216713   1.0000000
B2   B   0.222432931684050   0.277883132508694   0.625170170762825   1.0000000
B2   B   0.722156597215699   0.777680727578063   0.624806389050626   1.0000000
B2   B   0.555450200824642   0.277883132508694   0.625170170762825   1.0000000
B2   B   0.888882777867139   0.277765555734283   0.625112538465667   1.0000000
B2   B   0.222225391487857   0.777779362410599   0.124915936729700   1.0000000
B2   B   0.055652605755273   0.277809202970974   0.125193610949376   1.0000000
B2   B   0.389113245510148   0.278226491020301   0.122467355598535   1.0000000
B2   B   0.555524130362364   0.777680727578063   0.125193610949376   1.0000000
B2   B   0.888768927676734   0.777718988027770   0.125053309783290   1.0000000
B2   B   0.722156597215699   0.277809202970974   0.125193610949376   1.0000000
B2   B   0.055614345305566   0.944564405656595   0.624946690216713   1.0000000
B2   B   0.388950060351029   0.944564405656595   0.624946690216713   1.0000000
B2   B   0.222363238649118   0.444349209996881   0.624703595425384   1.0000000
B2   B   0.555106842313032   0.444220087823181   0.627532644401467   1.0000000
B2   B   0.722228191530318   0.944456383060635   0.625100555955290   1.0000000
B2   B   0.888768927676734   0.444383272982300   0.624946690216713   1.0000000
B2   B   0.055614345305566   0.444383272982300   0.125053309783290   1.0000000
B2   B   0.222293813647122   0.944587627294245   0.125114313882884   1.0000000
B2   B   0.555567777599057   0.944450555466190   0.124887461534333   1.0000000
B2   B   0.389113245510148   0.444220087823181   0.122467355598535   1.0000000
B2   B   0.888882777867139   0.944450555466190   0.124887461534333   1.0000000
B2   B   0.721985971347767   0.444349209996881   0.125296404574616   1.0000000
B2   B   0.222293813647122   0.611039519686215   0.624885686117120   1.0000000
B2   B   0.055652605755273   0.111176736117637   0.624806389050626   1.0000000
B2   B   0.555450200824642   0.610900401649283   0.625170170762825   1.0000000
B2   B   0.388984123336448   0.111347361985572   0.624703595425384   1.0000000
B2   B   0.888745706039084   0.611039519686215   0.624885686117120   1.0000000
B2   B   0.055553970922740   0.611107941845480   0.124915936729700   1.0000000
B2   B   0.722228191530318   0.111105141803019   0.625100555955290   1.0000000
B2   B   0.222363238649118   0.111347361985572   0.125296404574616   1.0000000
B2   B   0.388984123336448   0.610970094684222   0.125296404574616   1.0000000
B2   B   0.721985971347767   0.610970094684222   0.125296404574616   1.0000000
B2   B   0.555524130362364   0.111176736117637   0.125193610949376   1.0000000
B2   B   0.388984123336448   0.610970094684222   0.624703595425384   1.0000000
B2   B   0.888876950272693   0.111105141803019   0.124899444044711   1.0000000
B2   B   0.222225391487857   0.777779362410599   0.625084063270297   1.0000000
B2   B   0.055652605755273   0.277809202970974   0.624806389050626   1.0000000
B2   B   0.389113245510148   0.278226491020301   0.627532644401467   1.0000000
B2   B   0.555524130362364   0.777680727578063   0.624806389050626   1.0000000
B2   B   0.888768927676734   0.777718988027770   0.624946690216713   1.0000000
B2   B   0.722156597215699   0.277809202970974   0.624806389050626   1.0000000
B2   B   0.055553970922740   0.777779362410599   0.124915936729700   1.0000000
B2   B   0.388950060351029   0.777718988027770   0.125053309783290   1.0000000
B2   B   0.222432931684050   0.277883132508694   0.124829829237179   1.0000000
B2   B   0.722156597215699   0.777680727578063   0.125193610949376   1.0000000
B2   B   0.555450200824642   0.277883132508694   0.124829829237179   1.0000000
B2   B   0.888882777867139   0.277765555734283   0.124887461534333   1.0000000
B2   B   0.055614345305566   0.444383272982300   0.624946690216713   1.0000000
B2   B   0.222293813647122   0.944587627294245   0.624885686117120   1.0000000
B2   B   0.555567777599057   0.944450555466190   0.625112538465667   1.0000000
B2   B   0.389113245510148   0.444220087823181   0.627532644401467   1.0000000
B2   B   0.888882777867139   0.944450555466190   0.625112538465667   1.0000000
B2   B   0.055614345305566   0.944564405656595   0.125053309783290   1.0000000
B2   B   0.721985971347767   0.444349209996881   0.624703595425384   1.0000000
B2   B   0.388950060351029   0.944564405656595   0.125053309783290   1.0000000
B2   B   0.222363238649118   0.444349209996881   0.125296404574616   1.0000000
B2   B   0.222293813647122   0.611039519686215   0.125114313882884   1.0000000
B2   B   0.555106842313032   0.444220087823181   0.122467355598535   1.0000000
B2   B   0.722228191530318   0.944456383060635   0.124899444044711   1.0000000
B2   B   0.888768927676734   0.444383272982300   0.125053309783290   1.0000000
B2   B   0.055553970922740   0.611107941845480   0.625084063270297   1.0000000
B2   B   0.222363238649118   0.111347361985572   0.624703595425384   1.0000000
B2   B   0.721985971347767   0.610970094684222   0.624703595425384   1.0000000
B2   B   0.555524130362364   0.111176736117637   0.624806389050626   1.0000000
B2   B   0.888876950272693   0.111105141803019   0.625100555955290   1.0000000


