data_1
_audit_creation_method   'vasp2cif'
_cell_length_a    14.93631414619966
_cell_length_b    14.936314146199727
_cell_length_c    13.341276283792837
_cell_angle_alpha    90.0
_cell_angle_beta    90.0
_cell_angle_gamma    119.99999999999984

_symmetry_space_group_name_H-M    'P 1'
loop_
_atom_site_label
_atom_site_type_symbol
_atom_site_fract_x
_atom_site_fract_y
_atom_site_fract_z
_atom_site_occupancy
P2   P   0.498147231760259   0.415740282546793   0.375000000000000   1.0000000
N2   N   0.111103319516487   0.055549205675955   0.125002096365825   1.0000000
N2   N   0.611085330642139   0.555568084072312   0.124214138283445   1.0000000
N2   N   0.444414878914491   0.055523385442894   0.124996615308105   1.0000000
N2   N   0.944376932361999   0.555522925280759   0.125078287673230   1.0000000
N2   N   0.777775179847514   0.055554256590425   0.124946268086986   1.0000000
N2   N   0.111046671095367   0.722190002214349   0.624997811590808   1.0000000
N2   N   0.444414878914491   0.722224826804928   0.625003384691905   1.0000000
N2   N   0.277782329735649   0.222217167425668   0.625040705386023   1.0000000
N2   N   0.777739100230873   0.722213887834645   0.624945512305744   1.0000000
N2   N   0.611081867288577   0.222185032106750   0.625102876268645   1.0000000
N2   N   0.944448311456646   0.222223993942394   0.625026425502956   1.0000000
N2   N   0.277724906741242   0.722200585804082   0.125031670108695   1.0000000
N2   N   0.111131618776562   0.222232476054944   0.125006052147561   1.0000000
N2   N   0.444433180138683   0.222194303391890   0.124812861247134   1.0000000
N2   N   0.611081867288577   0.722230168515135   0.124897123731358   1.0000000
N2   N   0.944376932361999   0.722187340414581   0.125078287673230   1.0000000
N2   N   0.777765715400661   0.222205675714319   0.125007323081175   1.0000000
N2   N   0.111063239590425   0.888860933539749   0.624959788617299   1.0000000
N2   N   0.444408266605020   0.888870799969166   0.624980066397650   1.0000000
N2   N   0.277782329735649   0.388898495643307   0.625040705386023   1.0000000
N2   N   0.611085330642139   0.388850579903171   0.625785861716556   1.0000000
N2   N   0.777765715400661   0.888893373019664   0.624992676918820   1.0000000
N2   N   0.944417345242455   0.388872518378644   0.624956322505534   1.0000000
N2   N   0.111103319516487   0.388887447173861   0.125002096365825   1.0000000
N2   N   0.277724906741242   0.888857654270499   0.125031670108695   1.0000000
N2   N   0.611086021300790   0.888888035550057   0.124952743598711   1.0000000
N2   N   0.444430777685182   0.388882055509255   0.124346403116353   1.0000000
N2   N   0.944417345242455   0.888878160197160   0.125043677494474   1.0000000
N2   N   0.777739100230873   0.388858545729559   0.125054487694259   1.0000000
N2   N   0.277748110921402   0.555554285670849   0.624980956266728   1.0000000
N2   N   0.111103319516487   0.055549205675955   0.624997903634164   1.0000000
N2   N   0.611085330642139   0.555568084072312   0.625785861716556   1.0000000
N2   N   0.444414878914491   0.055523385442894   0.625003384691905   1.0000000
N2   N   0.944376932361999   0.555522925280759   0.624921712326773   1.0000000
N2   N   0.111063239590425   0.555535639384004   0.125040211382696   1.0000000
N2   N   0.777775179847514   0.055554256590425   0.625053731913022   1.0000000
N2   N   0.277748110921402   0.055527158583867   0.125019043733259   1.0000000
N2   N   0.444433180138683   0.555572210080130   0.124812861247134   1.0000000
N2   N   0.777710026828668   0.555521680081006   0.125005413990516   1.0000000
N2   N   0.611086021300790   0.055531319084039   0.124952743598711   1.0000000
N2   N   0.444433180138683   0.555572210080130   0.625187138752872   1.0000000
N2   N   0.944448311456646   0.055557650847594   0.124973574497043   1.0000000
N2   N   0.277724906741242   0.722200585804082   0.624968329891304   1.0000000
N2   N   0.111131618776562   0.222232476054944   0.624993947852433   1.0000000
N2   N   0.444433180138683   0.222194303391890   0.625187138752872   1.0000000
N2   N   0.611081867288577   0.722230168515135   0.625102876268645   1.0000000
N2   N   0.944376932361999   0.722187340414581   0.624921712326773   1.0000000
N2   N   0.777765715400661   0.222205675714319   0.624992676918820   1.0000000
N2   N   0.111046671095367   0.722190002214349   0.125002188409192   1.0000000
N2   N   0.444414878914491   0.722224826804928   0.124996615308105   1.0000000
N2   N   0.277782329735649   0.222217167425668   0.124959294613982   1.0000000
N2   N   0.777739100230873   0.722213887834645   0.125054487694259   1.0000000
N2   N   0.611081867288577   0.222185032106750   0.124897123731358   1.0000000
N2   N   0.944448311456646   0.222223993942394   0.124973574497043   1.0000000
N2   N   0.111103319516487   0.388887447173861   0.624997903634164   1.0000000
N2   N   0.277724906741242   0.888857654270499   0.624968329891304   1.0000000
N2   N   0.611086021300790   0.888888035550057   0.625047256401287   1.0000000
N2   N   0.444430777685182   0.388882055509255   0.625653596883643   1.0000000
N2   N   0.944417345242455   0.888878160197160   0.624956322505534   1.0000000
N2   N   0.111063239590425   0.888860933539749   0.125040211382696   1.0000000
N2   N   0.777739100230873   0.388858545729559   0.624945512305744   1.0000000
N2   N   0.444408266605020   0.888870799969166   0.125019933602353   1.0000000
N2   N   0.277782329735649   0.388898495643307   0.124959294613982   1.0000000
N2   N   0.277748110921402   0.555554285670849   0.125019043733259   1.0000000
N2   N   0.611085330642139   0.388850579903171   0.124214138283445   1.0000000
N2   N   0.777765715400661   0.888893373019664   0.125007323081175   1.0000000
N2   N   0.944417345242455   0.388872518378644   0.125043677494474   1.0000000
N2   N   0.111063239590425   0.555535639384004   0.624959788617299   1.0000000
N2   N   0.277748110921402   0.055527158583867   0.624980956266728   1.0000000
N2   N   0.777710026828668   0.555521680081006   0.624994586009488   1.0000000
N2   N   0.611086021300790   0.055531319084039   0.625047256401287   1.0000000
N2   N   0.944448311456646   0.055557650847594   0.625026425502956   1.0000000
N2   N   0.059805241689403   0.113591566256983   0.375000000000000   1.0000000
N2   N   0.556035029109171   0.620591797978527   0.375000000000000   1.0000000
N2   N   0.388837588660849   0.107911140657079   0.375000000000000   1.0000000
N2   N   0.883848779935098   0.608591056634217   0.375000000000000   1.0000000
N2   N   0.724565031610061   0.111423947437315   0.375000000000000   1.0000000
N2   N   0.055637705776042   0.777819363100342   0.875000000000000   1.0000000
N2   N   0.388972398860396   0.777819684520072   0.875000000000000   1.0000000
N2   N   0.222305202625226   0.277819267979276   0.875000000000000   1.0000000
N2   N   0.722307852571873   0.777819566290009   0.875000000000000   1.0000000
N2   N   0.555634737998722   0.277816646603521   0.875000000000000   1.0000000
N2   N   0.888975983185712   0.277824911639764   0.875000000000000   1.0000000
N2   N   0.220570944426657   0.776952138879997   0.375000000000000   1.0000000
N2   N   0.059805241689403   0.279547008765759   0.375000000000000   1.0000000
N2   N   0.398553598405892   0.281168575516205   0.375000000000000   1.0000000
N2   N   0.556254008727430   0.782061689122795   0.375000000000000   1.0000000
N2   N   0.887243705355659   0.777175916093151   0.375000000000000   1.0000000
N2   N   0.723587081543111   0.276246661751386   0.375000000000000   1.0000000
N2   N   0.055642025939438   0.944488460778055   0.875000000000000   1.0000000
N2   N   0.388972398860396   0.944486047673656   0.875000000000000   1.0000000
N2   N   0.222305166243906   0.444484273561949   0.875000000000000   1.0000000
N2   N   0.555638471465961   0.444485902399645   0.875000000000000   1.0000000
N2   N   0.722309467879660   0.944488623146537   0.875000000000000   1.0000000
N2   N   0.888972526530079   0.444487481584367   0.875000000000000   1.0000000
N2   N   0.056784430413189   0.444757940195915   0.375000000000000   1.0000000
N2   N   0.221422621345490   0.943369974428117   0.375000000000000   1.0000000
N2   N   0.556291682972590   0.944812508152956   0.375000000000000   1.0000000
N2   N   0.398553598405892   0.450718356223026   0.375000000000000   1.0000000
N2   N   0.891481332633105   0.946460962629183   0.375000000000000   1.0000000
N2   N   0.715733101961737   0.440290125162600   0.375000000000000   1.0000000
N2   N   0.222302940110262   0.611149490607721   0.875000000000000   1.0000000
N2   N   0.055641998547202   0.111152640029224   0.875000000000000   1.0000000
N2   N   0.555634737998722   0.611151424728535   0.875000000000000   1.0000000
N2   N   0.388974653555926   0.111153070260973   0.875000000000000   1.0000000
N2   N   0.888967846959732   0.611150590146539   0.875000000000000   1.0000000
N2   N   0.053195850050386   0.610128997673480   0.375000000000000   1.0000000
N2   N   0.722309467879660   0.111154178066484   0.875000000000000   1.0000000
N2   N   0.226576847110649   0.113779884451865   0.375000000000000   1.0000000
N2   N   0.388837588660849   0.614259781337113   0.375000000000000   1.0000000
N2   N   0.715733101961737   0.608776310132452   0.375000000000000   1.0000000
N2   N   0.556254008727430   0.107525652937954   0.375000000000000   1.0000000
N2   N   0.388974653555926   0.611154916628298   0.875000000000000   1.0000000
N2   N   0.892398121423548   0.112865727378451   0.375000000000000   1.0000000
N2   N   0.222300459200398   0.777816896266857   0.875000000000000   1.0000000
N2   N   0.055641998547202   0.277822691851313   0.875000000000000   1.0000000
N2   N   0.388974214871458   0.277820914996850   0.875000000000000   1.0000000
N2   N   0.555636124815873   0.777820623726687   0.875000000000000   1.0000000
N2   N   0.888972526530079   0.777818378279058   0.875000000000000   1.0000000
N2   N   0.722307852571873   0.277821619615206   0.875000000000000   1.0000000
N2   N   0.053195850050386   0.776400185710239   0.375000000000000   1.0000000
N2   N   0.388253709389085   0.778569352432028   0.375000000000000   1.0000000
N2   N   0.228896661767032   0.281114997550187   0.375000000000000   1.0000000
N2   N   0.723587081543111   0.780673753125048   0.375000000000000   1.0000000
N2   N   0.556035029109171   0.268776564463970   0.375000000000000   1.0000000
N2   N   0.891481332633105   0.278353703337276   0.375000000000000   1.0000000
N2   N   0.055642025939438   0.444486898494706   0.875000000000000   1.0000000
N2   N   0.222302940110263   0.944486782835859   0.875000000000000   1.0000000
N2   N   0.555635296470456   0.944484314901889   0.875000000000000   1.0000000
N2   N   0.388974214871458   0.444486633207938   0.875000000000000   1.0000000
N2   N   0.888975983185712   0.944484404879284   0.875000000000000   1.0000000
N2   N   0.056784430413189   0.945359823550598   0.375000000000000   1.0000000
N2   N   0.722306126319838   0.444485293957509   0.875000000000000   1.0000000
N2   N   0.388253709389085   0.943017690290391   0.375000000000000   1.0000000
N2   N   0.226576847110649   0.446130295992119   0.375000000000000   1.0000000
N2   N   0.221422621345490   0.611385980250718   0.375000000000000   1.0000000
N2   N   0.724565031610061   0.946474417506077   0.375000000000000   1.0000000
N2   N   0.887243705355659   0.443401122595824   0.375000000000000   1.0000000
N2   N   0.055637705776042   0.611151676009023   0.875000000000000   1.0000000
N2   N   0.222305166243907   0.111154226015291   0.875000000000000   1.0000000
N2   N   0.722306126319838   0.611154165695681   0.875000000000000   1.0000000
N2   N   0.555636124815873   0.111148834422539   0.875000000000000   1.0000000
N2   N   0.888975928333374   0.111154630833364   0.875000000000000   1.0000000
B2   B   0.114750282812939   0.057533949779233   0.375000000000000   1.0000000
B2   B   0.603474384996676   0.560510939610059   0.375000000000000   1.0000000
B2   B   0.444977770000248   0.053329761298254   0.375000000000000   1.0000000
B2   B   0.941464798303102   0.554418257189592   0.375000000000000   1.0000000
B2   B   0.781076053243397   0.057204693288362   0.375000000000000   1.0000000
B2   B   0.111220077398123   0.722276705365742   0.875000000000000   1.0000000
B2   B   0.444557197763211   0.722278857054540   0.875000000000000   1.0000000
B2   B   0.277861419498463   0.222272125024220   0.875000000000000   1.0000000
B2   B   0.777888691680512   0.722278258798257   0.875000000000000   1.0000000
B2   B   0.611186394250936   0.222266632295910   0.875000000000000   1.0000000
B2   B   0.944529574822308   0.222272836212761   0.875000000000000   1.0000000
B2   B   0.276916639427255   0.722332840475496   0.375000000000000   1.0000000
B2   B   0.116789453160049   0.225061393246689   0.375000000000000   1.0000000
B2   B   0.445579720556954   0.217838035131139   0.375000000000000   1.0000000
B2   B   0.613011579178446   0.729259985321273   0.375000000000000   1.0000000
B2   B   0.941464798303102   0.720379874446844   0.375000000000000   1.0000000
B2   B   0.780484003141463   0.222315885833094   0.375000000000000   1.0000000
B2   B   0.111233484075933   0.888952507386922   0.875000000000000   1.0000000
B2   B   0.444566684773176   0.888950009053250   0.875000000000000   1.0000000
B2   B   0.277861419498463   0.388922627807578   0.875000000000000   1.0000000
B2   B   0.611185983129721   0.388917661306510   0.875000000000000   1.0000000
B2   B   0.777904617021908   0.888951743952026   0.875000000000000   1.0000000
B2   B   0.944526294467536   0.388922730236113   0.875000000000000   1.0000000
B2   B   0.114750282812939   0.390549666367042   0.375000000000000   1.0000000
B2   B   0.276916639427255   0.887917132285102   0.375000000000000   1.0000000
B2   B   0.613128240454373   0.891761710975521   0.375000000000000   1.0000000
B2   B   0.945168270513017   0.889259054571639   0.375000000000000   1.0000000
B2   B   0.775480747285428   0.387259494960585   0.375000000000000   1.0000000
B2   B   0.277856751219495   0.555599848983372   0.875000000000000   1.0000000
B2   B   0.111228920005252   0.055616059166139   0.875000000000000   1.0000000
B2   B   0.611185983129721   0.555601655156528   0.875000000000000   1.0000000
B2   B   0.444557197763211   0.055611674042013   0.875000000000000   1.0000000
B2   B   0.944517785897241   0.555598842978743   0.875000000000000   1.0000000
B2   B   0.110287153645993   0.555663510736811   0.375000000000000   1.0000000
B2   B   0.777894787964835   0.055614060649085   0.875000000000000   1.0000000
B2   B   0.278197199019891   0.054497460232888   0.375000000000000   1.0000000
B2   B   0.445579720556954   0.561075018759141   0.375000000000000   1.0000000
B2   B   0.771245239399118   0.552289286366220   0.375000000000000   1.0000000
B2   B   0.613128240454373   0.054699862812184   0.375000000000000   1.0000000
B2   B   0.444565828301485   0.555614601287082   0.875000000000000   1.0000000
B2   B   0.948300749427693   0.057744548271083   0.375000000000000   1.0000000
B2   B   0.277854000397222   0.722251649798543   0.875000000000000   1.0000000
B2   B   0.111240850155369   0.222287091744350   0.875000000000000   1.0000000
B2   B   0.444565828301485   0.222284560347742   0.875000000000000   1.0000000
B2   B   0.611186394250936   0.722253095288362   0.875000000000000   1.0000000
B2   B   0.944517785897241   0.722252276251838   0.875000000000000   1.0000000
B2   B   0.777904617021908   0.222286206403220   0.875000000000000   1.0000000
B2   B   0.109172960605612   0.721253146969477   0.375000000000000   1.0000000
B2   B   0.444977770000248   0.724981342035336   0.375000000000000   1.0000000
B2   B   0.285803362461895   0.226777340776952   0.375000000000000   1.0000000
B2   B   0.775480747285428   0.721554585658181   0.375000000000000   1.0000000
B2   B   0.613011579178446   0.217084927190501   0.375000000000000   1.0000000
B2   B   0.948300749427693   0.223889534489960   0.375000000000000   1.0000000
B2   B   0.111228920005252   0.388946194172445   0.875000000000000   1.0000000
B2   B   0.277854000397222   0.888935683932000   0.875000000000000   1.0000000
B2   B   0.611188643079184   0.888935546660334   0.875000000000000   1.0000000
B2   B   0.444555882850753   0.388944608092042   0.875000000000000   1.0000000
B2   B   0.944526294467536   0.888936897564757   0.875000000000000   1.0000000
B2   B   0.110287153645993   0.887956976242513   0.375000000000000   1.0000000
B2   B   0.777888691680512   0.388943766215580   0.875000000000000   1.0000000
B2   B   0.444832724893859   0.889083029113587   0.375000000000000   1.0000000
B2   B   0.285803362461895   0.392359355018279   0.375000000000000   1.0000000
B2   B   0.278197199019891   0.557033072120345   0.375000000000000   1.0000000
B2   B   0.603474384996676   0.376296778719934   0.375000000000000   1.0000000
B2   B   0.780484003141463   0.891501450641691   0.375000000000000   1.0000000
B2   B   0.945168270513017   0.389242549274692   0.375000000000000   1.0000000
B2   B   0.111233484075933   0.555614310022328   0.875000000000000   1.0000000
B2   B   0.277856751219495   0.055590235569455   0.875000000000000   1.0000000
B2   B   0.777894111736523   0.555613722534924   0.875000000000000   1.0000000
B2   B   0.611188643079184   0.055586429752156   0.875000000000000   1.0000000
B2   B   0.944529574822308   0.055590071942869   0.875000000000000   1.0000000
B2   B   0.055571451963824   0.111113725508130   0.125001174577061   1.0000000
B2   B   0.555496389051986   0.611102542348189   0.124650478232627   1.0000000
B2   B   0.388863547583565   0.111077344640187   0.124980994624547   1.0000000
B2   B   0.888795654321454   0.611064493827385   0.125094941832108   1.0000000
B2   B   0.722205386161005   0.111086697635616   0.124976458346308   1.0000000
B2   B   0.055503370505361   0.777744940609301   0.624951875589839   1.0000000
B2   B   0.388849622958658   0.777755226758655   0.624977733912446   1.0000000
B2   B   0.222218406242142   0.277775869787731   0.624983398747086   1.0000000
B2   B   0.722197218948905   0.777770858069702   0.625008341767781   1.0000000
B2   B   0.555496389051986   0.277727180037123   0.625349521767382   1.0000000
B2   B   0.888844822823078   0.277745103988309   0.624991146707985   1.0000000
B2   B   0.222125341996006   0.777729337664675   0.125025652668298   1.0000000
B2   B   0.055571451963824   0.277791059789023   0.125001174577061   1.0000000
B2   B   0.388875655764874   0.277757008054640   0.124834358971179   1.0000000
B2   B   0.555482247044202   0.777753808928877   0.124969472775073   1.0000000
B2   B   0.888804861408126   0.777747680331954   0.125087356371857   1.0000000
B2   B   0.722197218948905   0.277759694212533   0.124991658232219   1.0000000
B2   B   0.055535349655320   0.944449014725878   0.624959688300128   1.0000000
B2   B   0.388849622958658   0.944427729533342   0.624977733912446   1.0000000
B2   B   0.222175082011782   0.444420915329305   0.624958957331331   1.0000000
B2   B   0.555517002270284   0.444425167801806   0.625695328984370   1.0000000
B2   B   0.722205386161005   0.944452021858731   0.625023541653684   1.0000000
B2   B   0.888804861408126   0.444390514409496   0.624912643628142   1.0000000
B2   B   0.055535349655320   0.444419668262768   0.125040311699879   1.0000000
B2   B   0.222145562115847   0.944404036434027   0.125045557003926   1.0000000
B2   B   0.555487884138725   0.944410608736033   0.124981640070271   1.0000000
B2   B   0.388875655764874   0.444451981043575   0.124834358971179   1.0000000
B2   B   0.888844822823078   0.944433052168102   0.125008853292018   1.0000000
B2   B   0.722187423204866   0.444408789616570   0.124789273013358   1.0000000
B2   B   0.222145562115847   0.611074859015148   0.624954442996070   1.0000000
B2   B   0.055571451963824   0.111113725508130   0.624998825422942   1.0000000
B2   B   0.555496389051986   0.611102542348189   0.625349521767382   1.0000000
B2   B   0.388863547583565   0.111077344640187   0.625019005375454   1.0000000
B2   B   0.888795654321454   0.611064493827385   0.624905058167895   1.0000000
B2   B   0.055503370505361   0.611091763229378   0.125048124410159   1.0000000
B2   B   0.722205386161005   0.111086697635616   0.625023541653684   1.0000000
B2   B   0.222175082011782   0.111087500015816   0.125041042668662   1.0000000
B2   B   0.388863547583565   0.611119536276732   0.124980994624547   1.0000000
B2   B   0.722187423204866   0.611111966921631   0.124789273013358   1.0000000
B2   B   0.555482247044202   0.111061771448663   0.124969472775073   1.0000000
B2   B   0.388863547583565   0.611119536276732   0.625019005375454   1.0000000
B2   B   0.888847471795064   0.111090402564200   0.124975951183108   1.0000000
B2   B   0.222125341996006   0.777729337664675   0.624974347331706   1.0000000
B2   B   0.055571451963824   0.277791059789023   0.624998825422942   1.0000000
B2   B   0.388875655764874   0.277757008054640   0.625165641028813   1.0000000
B2   B   0.555482247044202   0.777753808928877   0.625030527224935   1.0000000
B2   B   0.888804861408126   0.777747680331954   0.624912643628142   1.0000000
B2   B   0.722197218948905   0.277759694212533   0.625008341767781   1.0000000
B2   B   0.055503370505361   0.777744940609301   0.125048124410159   1.0000000
B2   B   0.388849622958658   0.777755226758655   0.125022266087546   1.0000000
B2   B   0.222218406242142   0.277775869787731   0.125016601252918   1.0000000
B2   B   0.722197218948905   0.777770858069702   0.124991658232219   1.0000000
B2   B   0.555496389051986   0.277727180037123   0.124650478232627   1.0000000
B2   B   0.888844822823078   0.277745103988309   0.125008853292018   1.0000000
B2   B   0.055535349655320   0.444419668262768   0.624959688300128   1.0000000
B2   B   0.222145562115847   0.944404036434027   0.624954442996070   1.0000000
B2   B   0.555487884138725   0.944410608736033   0.625018359929733   1.0000000
B2   B   0.388875655764874   0.444451981043575   0.625165641028813   1.0000000
B2   B   0.888844822823078   0.944433052168102   0.624991146707985   1.0000000
B2   B   0.055535349655320   0.944449014725878   0.125040311699879   1.0000000
B2   B   0.722187423204866   0.444408789616570   0.625210726986643   1.0000000
B2   B   0.388849622958658   0.944427729533342   0.125022266087546   1.0000000
B2   B   0.222175082011782   0.444420915329305   0.125041042668662   1.0000000
B2   B   0.222145562115847   0.611074859015148   0.125045557003926   1.0000000
B2   B   0.555517002270284   0.444425167801806   0.124304671015634   1.0000000
B2   B   0.722205386161005   0.944452021858731   0.124976458346308   1.0000000
B2   B   0.888804861408120   0.444390514409496   0.125087356371857   1.0000000
B2   B   0.055503370505361   0.611091763229378   0.624951875589839   1.0000000
B2   B   0.222175082011782   0.111087500015816   0.624958957331331   1.0000000
B2   B   0.722187423204866   0.611111966921631   0.625210726986643   1.0000000
B2   B   0.555482247044202   0.111061771448663   0.625030527224935   1.0000000
B2   B   0.888847471795064   0.111090402564200   0.625024048816898   1.0000000


