data_1
_audit_creation_method   'vasp2cif'
_cell_length_a    14.93631414619966
_cell_length_b    14.936314146199727
_cell_length_c    13.341276283792837
_cell_angle_alpha    90.0
_cell_angle_beta    90.0
_cell_angle_gamma    119.99999999999984

_symmetry_space_group_name_H-M    'P 1'
loop_
_atom_site_label
_atom_site_type_symbol
_atom_site_fract_x
_atom_site_fract_y
_atom_site_fract_z
_atom_site_occupancy
C2   C   0.555555555555557   0.444444444444443   0.375000000000000   1.0000000
N2   N   0.111108184251129   0.055559523139456   0.125052694921370   1.0000000
N2   N   0.611141063481616   0.555615460296560   0.124360068798516   1.0000000
N2   N   0.444458627878004   0.055572782070046   0.125039909237970   1.0000000
N2   N   0.944427217929954   0.555541372121996   0.125039909237970   1.0000000
N2   N   0.777783376692015   0.055558355012679   0.125038190584696   1.0000000
N2   N   0.111101612633901   0.722217472983615   0.624949942828197   1.0000000
N2   N   0.444458627878004   0.722219179141294   0.624960090762030   1.0000000
N2   N   0.277768186940924   0.222228067888498   0.624981762070984   1.0000000
N2   N   0.777771932111502   0.722231813059076   0.624981762070984   1.0000000
N2   N   0.611126547614245   0.222228067888498   0.624981762070984   1.0000000
N2   N   0.944441644987321   0.222216623307985   0.624961809415304   1.0000000
N2   N   0.277782527016385   0.722217472983615   0.125050057171803   1.0000000
N2   N   0.111088230943785   0.222210782138560   0.125018363248225   1.0000000
N2   N   0.444451809249203   0.222236951831749   0.124984610107812   1.0000000
N2   N   0.611126547614245   0.722231813059076   0.125018237929015   1.0000000
N2   N   0.944427217929954   0.722219179141294   0.125039909237970   1.0000000
N2   N   0.777789217861440   0.222210782138560   0.125018363248225   1.0000000
N2   N   0.111106653175585   0.888893346824415   0.624951702876626   1.0000000
N2   N   0.444453360315508   0.888893346824415   0.624951702876626   1.0000000
N2   N   0.277768186940924   0.388873452385747   0.624981762070984   1.0000000
N2   N   0.611141063481616   0.388858936518384   0.625639931201485   1.0000000
N2   N   0.777789217861440   0.888911769056215   0.624981636751775   1.0000000
N2   N   0.944440476860543   0.388881994445001   0.624947305078630   1.0000000
N2   N   0.111108184251129   0.388881994445001   0.125052694921370   1.0000000
N2   N   0.277782527016385   0.888898387366099   0.125050057171803   1.0000000
N2   N   0.611118005554999   0.888891815748871   0.125052694921370   1.0000000
N2   N   0.444384539703440   0.388858936518384   0.124360068798516   1.0000000
N2   N   0.944440476860543   0.888891815748871   0.125052694921370   1.0000000
N2   N   0.777771932111502   0.388873452385747   0.125018237929015   1.0000000
N2   N   0.277780820858706   0.555541372121996   0.624960090762030   1.0000000
N2   N   0.111108184251129   0.055559523139456   0.624947305078630   1.0000000
N2   N   0.611141063481616   0.555615460296560   0.625639931201485   1.0000000
N2   N   0.444458627878004   0.055572782070046   0.624960090762030   1.0000000
N2   N   0.944427217929954   0.555541372121996   0.624960090762030   1.0000000
N2   N   0.111106653175585   0.555546639684492   0.125048297123375   1.0000000
N2   N   0.777783376692015   0.055558355012679   0.624961809415304   1.0000000
N2   N   0.277780820858706   0.055572782070046   0.125039909237970   1.0000000
N2   N   0.444451809249203   0.555548190750797   0.124984610107812   1.0000000
N2   N   0.777763048168251   0.555548190750797   0.124984610107812   1.0000000
N2   N   0.611118005554999   0.055559523139456   0.125052694921370   1.0000000
N2   N   0.444451809249203   0.555548190750797   0.625015389892188   1.0000000
N2   N   0.944441644987321   0.055558355012679   0.125038190584696   1.0000000
N2   N   0.277782527016385   0.722217472983615   0.624949942828197   1.0000000
N2   N   0.111088230943785   0.222210782138560   0.624981636751775   1.0000000
N2   N   0.444451809249203   0.222236951831749   0.625015389892188   1.0000000
N2   N   0.611126547614245   0.722231813059076   0.624981762070984   1.0000000
N2   N   0.944427217929954   0.722219179141294   0.624960090762030   1.0000000
N2   N   0.777789217861440   0.222210782138560   0.624981636751775   1.0000000
N2   N   0.111101612633901   0.722217472983615   0.125050057171803   1.0000000
N2   N   0.444458627878004   0.722219179141294   0.125039909237970   1.0000000
N2   N   0.277768186940924   0.222228067888498   0.125018237929015   1.0000000
N2   N   0.777771932111502   0.722231813059076   0.125018237929015   1.0000000
N2   N   0.611126547614245   0.222228067888498   0.125018237929015   1.0000000
N2   N   0.944441644987321   0.222216623307985   0.125038190584696   1.0000000
N2   N   0.111108184251129   0.388881994445001   0.624947305078630   1.0000000
N2   N   0.277782527016385   0.888898387366099   0.624949942828197   1.0000000
N2   N   0.611118005554999   0.888891815748871   0.624947305078630   1.0000000
N2   N   0.444384539703440   0.388858936518384   0.625639931201485   1.0000000
N2   N   0.944440476860543   0.888891815748871   0.624947305078630   1.0000000
N2   N   0.111106653175585   0.888893346824415   0.125048297123375   1.0000000
N2   N   0.777771932111502   0.388873452385747   0.624981762070984   1.0000000
N2   N   0.444453360315508   0.888893346824415   0.125048297123375   1.0000000
N2   N   0.277768186940924   0.388873452385747   0.125018237929015   1.0000000
N2   N   0.277780820858706   0.555541372121996   0.125039909237970   1.0000000
N2   N   0.611141063481616   0.388858936518384   0.124360068798516   1.0000000
N2   N   0.777789217861440   0.888911769056215   0.125018363248225   1.0000000
N2   N   0.944440476860543   0.388881994445001   0.125052694921370   1.0000000
N2   N   0.111106653175585   0.555546639684492   0.624951702876626   1.0000000
N2   N   0.277780820858706   0.055572782070046   0.624960090762030   1.0000000
N2   N   0.777763048168251   0.555548190750797   0.625015389892188   1.0000000
N2   N   0.611118005554999   0.055559523139456   0.624947305078630   1.0000000
N2   N   0.944441644987321   0.055558355012679   0.624961809415304   1.0000000
N2   N   0.055303012139363   0.110918295998437   0.375000000000000   1.0000000
N2   N   0.555613775616067   0.613326733105418   0.375000000000000   1.0000000
N2   N   0.388522010340239   0.110377354013828   0.375000000000000   1.0000000
N2   N   0.889622645986172   0.611477989659761   0.375000000000000   1.0000000
N2   N   0.722281950525738   0.110918295998437   0.375000000000000   1.0000000
N2   N   0.055559036749140   0.777779266202838   0.875000000000000   1.0000000
N2   N   0.388886896120356   0.777779266202838   0.875000000000000   1.0000000
N2   N   0.222225417558359   0.277779375445851   0.875000000000000   1.0000000
N2   N   0.722220624554149   0.777774582441641   0.875000000000000   1.0000000
N2   N   0.555550905705981   0.277773473331530   0.875000000000000   1.0000000
N2   N   0.888890840146227   0.277781454653208   0.875000000000000   1.0000000
N2   N   0.222222222222221   0.777777777777779   0.375000000000000   1.0000000
N2   N   0.055303012139363   0.277718049474262   0.375000000000000   1.0000000
N2   N   0.386673266894583   0.275620375843985   0.375000000000000   1.0000000
N2   N   0.555492357627166   0.778560173497660   0.375000000000000   1.0000000
N2   N   0.889734482537159   0.778560173497660   0.375000000000000   1.0000000
N2   N   0.722678635219044   0.277321364780956   0.375000000000000   1.0000000
N2   N   0.055557826004170   0.944442173995830   0.875000000000000   1.0000000
N2   N   0.388886896120356   0.944440963250861   0.875000000000000   1.0000000
N2   N   0.222221556584544   0.444447579663877   0.875000000000000   1.0000000
N2   N   0.555555555555557   0.444444444444443   0.875000000000000   1.0000000
N2   N   0.722218545346792   0.944442718826355   0.875000000000000   1.0000000
N2   N   0.888892689745998   0.444447579663877   0.875000000000000   1.0000000
N2   N   0.055595437018600   0.444524207370522   0.375000000000000   1.0000000
N2   N   0.222104297195528   0.944190122070495   0.375000000000000   1.0000000
N2   N   0.555475792629478   0.944404562981407   0.375000000000000   1.0000000
N2   N   0.386673266894583   0.444386224383933   0.375000000000000   1.0000000
N2   N   0.889081704001563   0.944696987860638   0.375000000000000   1.0000000
N2   N   0.724379624156014   0.444386224383933   0.375000000000000   1.0000000
N2   N   0.222220733797162   0.611113103879644   0.875000000000000   1.0000000
N2   N   0.055557281173645   0.111109159853773   0.875000000000000   1.0000000
N2   N   0.555550905705981   0.611110765707787   0.875000000000000   1.0000000
N2   N   0.388885198546309   0.111103730425960   0.875000000000000   1.0000000
N2   N   0.888896269574040   0.611114801453691   0.875000000000000   1.0000000
N2   N   0.055809877929505   0.611247508458361   0.375000000000000   1.0000000
N2   N   0.722218545346792   0.111109159853773   0.875000000000000   1.0000000
N2   N   0.221439826502340   0.110265517462841   0.375000000000000   1.0000000
N2   N   0.388522010340239   0.611477989659761   0.375000000000000   1.0000000
N2   N   0.724379624156014   0.613326733105418   0.375000000000000   1.0000000
N2   N   0.555492357627166   0.110265517462841   0.375000000000000   1.0000000
N2   N   0.388885198546309   0.611114801453691   0.875000000000000   1.0000000
N2   N   0.888888888888886   0.111111111111114   0.375000000000000   1.0000000
N2   N   0.222222222222221   0.777777777777779   0.875000000000000   1.0000000
N2   N   0.055557281173645   0.277781454653208   0.875000000000000   1.0000000
N2   N   0.388889234292213   0.277773473331530   0.875000000000000   1.0000000
N2   N   0.555552420336123   0.777778443415456   0.875000000000000   1.0000000
N2   N   0.888892689745998   0.777778443415456   0.875000000000000   1.0000000
N2   N   0.722220624554149   0.277779375445851   0.875000000000000   1.0000000
N2   N   0.055809877929505   0.777895702804472   0.375000000000000   1.0000000
N2   N   0.388752491541639   0.777895702804472   0.375000000000000   1.0000000
N2   N   0.221309396228584   0.277321364780956   0.375000000000000   1.0000000
N2   N   0.722678635219044   0.778690603771416   0.375000000000000   1.0000000
N2   N   0.555613775616067   0.275620375843985   0.375000000000000   1.0000000
N2   N   0.889081704001563   0.277718049474262   0.375000000000000   1.0000000
N2   N   0.055557826004170   0.444448985341661   0.875000000000000   1.0000000
N2   N   0.222220733797162   0.944440963250861   0.875000000000000   1.0000000
N2   N   0.555551014658339   0.944442173995830   0.875000000000000   1.0000000
N2   N   0.388889234292213   0.444449094294019   0.875000000000000   1.0000000
N2   N   0.888890840146227   0.944442718826355   0.875000000000000   1.0000000
N2   N   0.055595437018600   0.944404562981407   0.375000000000000   1.0000000
N2   N   0.722226526668470   0.444449094294019   0.875000000000000   1.0000000
N2   N   0.388752491541639   0.944190122070495   0.375000000000000   1.0000000
N2   N   0.221439826502340   0.444507642372834   0.375000000000000   1.0000000
N2   N   0.222104297195528   0.611247508458361   0.375000000000000   1.0000000
N2   N   0.722281950525738   0.944696987860638   0.375000000000000   1.0000000
N2   N   0.889734482537159   0.444507642372834   0.375000000000000   1.0000000
N2   N   0.055559036749140   0.611113103879644   0.875000000000000   1.0000000
N2   N   0.222221556584544   0.111107310254003   0.875000000000000   1.0000000
N2   N   0.722226526668470   0.611110765707787   0.875000000000000   1.0000000
N2   N   0.555552420336123   0.111107310254003   0.875000000000000   1.0000000
N2   N   0.888888888888886   0.111111111111114   0.875000000000000   1.0000000
B2   B   0.110642233358115   0.055144757131097   0.375000000000000   1.0000000
B2   B   0.611697174533218   0.556727682399757   0.375000000000000   1.0000000
B2   B   0.444173548501359   0.055281415294003   0.375000000000000   1.0000000
B2   B   0.944718584705997   0.555826451498641   0.375000000000000   1.0000000
B2   B   0.777947999890739   0.055640666612037   0.375000000000000   1.0000000
B2   B   0.111107728802231   0.722220531067780   0.875000000000000   1.0000000
B2   B   0.444445765896498   0.722200478958249   0.875000000000000   1.0000000
B2   B   0.277830295659978   0.222257084096961   0.875000000000000   1.0000000
B2   B   0.777742915903039   0.722169704340022   0.875000000000000   1.0000000
B2   B   0.611093455103656   0.222257084096961   0.875000000000000   1.0000000
B2   B   0.944447858978425   0.222229051290186   0.875000000000000   1.0000000
B2   B   0.277675231559019   0.722324768440981   0.375000000000000   1.0000000
B2   B   0.110902460797403   0.222117897065366   0.375000000000000   1.0000000
B2   B   0.444284066032665   0.221901465398665   0.375000000000000   1.0000000
B2   B   0.611324789687007   0.723440390169525   0.375000000000000   1.0000000
B2   B   0.944718584705997   0.722225466540692   0.375000000000000   1.0000000
B2   B   0.777882102934634   0.222117897065366   0.375000000000000   1.0000000
B2   B   0.111111864063119   0.888888135936881   0.875000000000000   1.0000000
B2   B   0.444442938540426   0.888888135936881   0.875000000000000   1.0000000
B2   B   0.277830295659978   0.388906544896345   0.875000000000000   1.0000000
B2   B   0.611086336352491   0.388913663647509   0.875000000000000   1.0000000
B2   B   0.777759684695921   0.888852702725178   0.875000000000000   1.0000000
B2   B   0.944439289887935   0.388903421981486   0.875000000000000   1.0000000
B2   B   0.110642233358115   0.388830809560346   0.375000000000000   1.0000000
B2   B   0.277675231559019   0.888683796451366   0.375000000000000   1.0000000
B2   B   0.611169190439654   0.889357766641885   0.375000000000000   1.0000000
B2   B   0.443272317600243   0.388302825466782   0.375000000000000   1.0000000
B2   B   0.944855242868903   0.889357766641885   0.375000000000000   1.0000000
B2   B   0.778782267149189   0.388675210312993   0.375000000000000   1.0000000
B2   B   0.277799521041751   0.555554234103502   0.875000000000000   1.0000000
B2   B   0.111130798760223   0.055560710112065   0.875000000000000   1.0000000
B2   B   0.611086336352491   0.555506006038312   0.875000000000000   1.0000000
B2   B   0.444445765896498   0.055578620271585   0.875000000000000   1.0000000
B2   B   0.944421379728415   0.555554234103502   0.875000000000000   1.0000000
B2   B   0.111100045902784   0.555533425138897   0.375000000000000   1.0000000
B2   B   0.777770948709814   0.055552141021575   0.875000000000000   1.0000000
B2   B   0.277774533459308   0.055281415294003   0.375000000000000   1.0000000
B2   B   0.444284066032665   0.555715933967335   0.375000000000000   1.0000000
B2   B   0.778098534601335   0.555715933967335   0.375000000000000   1.0000000
B2   B   0.611169190439654   0.055144757131097   0.375000000000000   1.0000000
B2   B   0.444463413440309   0.555536586559691   0.875000000000000   1.0000000
B2   B   0.944359333387963   0.055640666612037   0.375000000000000   1.0000000
B2   B   0.277779468932220   0.722220531067780   0.875000000000000   1.0000000
B2   B   0.111147297274822   0.222240315304079   0.875000000000000   1.0000000
B2   B   0.444463413440309   0.222260160213961   0.875000000000000   1.0000000
B2   B   0.611093455103656   0.722169704340022   0.875000000000000   1.0000000
B2   B   0.944421379728415   0.722200478958249   0.875000000000000   1.0000000
B2   B   0.777759684695921   0.222240315304079   0.875000000000000   1.0000000
B2   B   0.111316203548634   0.722324768440981   0.375000000000000   1.0000000
B2   B   0.444173548501359   0.722225466540692   0.375000000000000   1.0000000
B2   B   0.276559609830475   0.221217732850811   0.375000000000000   1.0000000
B2   B   0.778782267149189   0.723440390169525   0.375000000000000   1.0000000
B2   B   0.611324789687007   0.221217732850811   0.375000000000000   1.0000000
B2   B   0.944359333387963   0.222052000109261   0.375000000000000   1.0000000
B2   B   0.111130798760223   0.388903421981486   0.875000000000000   1.0000000
B2   B   0.277779468932220   0.888892271197769   0.875000000000000   1.0000000
B2   B   0.611096578018514   0.888869201239777   0.875000000000000   1.0000000
B2   B   0.444493993961688   0.388913663647509   0.875000000000000   1.0000000
B2   B   0.944439289887935   0.888869201239777   0.875000000000000   1.0000000
B2   B   0.111100045902784   0.888899954097216   0.375000000000000   1.0000000
B2   B   0.777742915903039   0.388906544896345   0.875000000000000   1.0000000
B2   B   0.444466574861103   0.888899954097216   0.375000000000000   1.0000000
B2   B   0.276559609830475   0.388675210312993   0.375000000000000   1.0000000
B2   B   0.277774533459308   0.555826451498641   0.375000000000000   1.0000000
B2   B   0.611697174533218   0.388302825466782   0.375000000000000   1.0000000
B2   B   0.777882102934634   0.889097539202597   0.375000000000000   1.0000000
B2   B   0.944855242868903   0.388830809560346   0.375000000000000   1.0000000
B2   B   0.111111864063119   0.555557061459575   0.875000000000000   1.0000000
B2   B   0.277799521041751   0.055578620271585   0.875000000000000   1.0000000
B2   B   0.777739839786039   0.555536586559691   0.875000000000000   1.0000000
B2   B   0.611096578018514   0.055560710112065   0.875000000000000   1.0000000
B2   B   0.944447858978425   0.055552141021575   0.875000000000000   1.0000000
B2   B   0.055569147713068   0.111131962439025   0.124931757300620   1.0000000
B2   B   0.555613751614481   0.610960686719932   0.124953707037862   1.0000000
B2   B   0.388972021155360   0.111277375644056   0.125026074177948   1.0000000
B2   B   0.888722624355944   0.611027978844640   0.125026074177948   1.0000000
B2   B   0.722229481392614   0.111131962439025   0.124931757300620   1.0000000
B2   B   0.055497939627850   0.777755589557153   0.625061545744918   1.0000000
B2   B   0.388924316595967   0.777755589557153   0.625061545744918   1.0000000
B2   B   0.222288111707477   0.277810722520410   0.624996130543752   1.0000000
B2   B   0.722189277479590   0.777711888292523   0.624996130543752   1.0000000
B2   B   0.555613751614481   0.277986398227885   0.625046292962138   1.0000000
B2   B   0.888868037560975   0.277770518607386   0.625068242699380   1.0000000
B2   B   0.222222222222221   0.777777777777779   0.124966366791781   1.0000000
B2   B   0.055569147713068   0.277770518607386   0.124931757300620   1.0000000
B2   B   0.389039313280068   0.277986398227885   0.124953707037862   1.0000000
B2   B   0.555586043221036   0.777717707587620   0.124956864231016   1.0000000
B2   B   0.888798331033249   0.777717707587620   0.124956864231016   1.0000000
B2   B   0.722189277479590   0.277810722520410   0.125003869456247   1.0000000
B2   B   0.055544906925548   0.944455093074452   0.625028973087242   1.0000000
B2   B   0.388924316595967   0.944502060372150   0.625061545744918   1.0000000
B2   B   0.222282292412380   0.444413956778964   0.625043135768985   1.0000000
B2   B   0.555555555555557   0.444444444444443   0.623887264129025   1.0000000
B2   B   0.722229481392614   0.944430852286932   0.625068242699380   1.0000000
B2   B   0.888798331033249   0.444413956778964   0.625043135768985   1.0000000
B2   B   0.055544906925548   0.444423147184431   0.124971026912758   1.0000000
B2   B   0.222244410442847   0.944502060372150   0.124938454255082   1.0000000
B2   B   0.555576852815576   0.944455093074452   0.124971026912758   1.0000000
B2   B   0.389039313280068   0.444386248385511   0.124953707037862   1.0000000
B2   B   0.888868037560975   0.944430852286932   0.124931757300620   1.0000000
B2   B   0.722013601772115   0.444386248385511   0.124953707037862   1.0000000
B2   B   0.222244410442847   0.611075683404032   0.625061545744918   1.0000000
B2   B   0.055569147713068   0.111131962439025   0.625068242699380   1.0000000
B2   B   0.555613751614481   0.610960686719932   0.625046292962138   1.0000000
B2   B   0.388972021155360   0.111277375644056   0.624973925822052   1.0000000
B2   B   0.888722624355944   0.611027978844640   0.624973925822052   1.0000000
B2   B   0.055497939627850   0.611075683404032   0.124938454255082   1.0000000
B2   B   0.722229481392614   0.111131962439025   0.625068242699380   1.0000000
B2   B   0.222282292412380   0.111201668966752   0.124956864231016   1.0000000
B2   B   0.388972021155360   0.611027978844640   0.125026074177948   1.0000000
B2   B   0.722013601772115   0.610960686719932   0.124953707037862   1.0000000
B2   B   0.555586043221036   0.111201668966752   0.124956864231016   1.0000000
B2   B   0.388972021155360   0.611027978844640   0.624973925822052   1.0000000
B2   B   0.888888888888886   0.111111111111114   0.124961764131685   1.0000000
B2   B   0.222222222222221   0.777777777777779   0.625033633208219   1.0000000
B2   B   0.055569147713068   0.277770518607386   0.625068242699380   1.0000000
B2   B   0.389039313280068   0.277986398227885   0.625046292962138   1.0000000
B2   B   0.555586043221036   0.777717707587620   0.625043135768985   1.0000000
B2   B   0.888798331033249   0.777717707587620   0.625043135768985   1.0000000
B2   B   0.722189277479590   0.277810722520410   0.624996130543752   1.0000000
B2   B   0.055497939627850   0.777755589557153   0.124938454255082   1.0000000
B2   B   0.388924316595967   0.777755589557153   0.124938454255082   1.0000000
B2   B   0.222288111707477   0.277810722520410   0.125003869456247   1.0000000
B2   B   0.722189277479590   0.777711888292523   0.125003869456247   1.0000000
B2   B   0.555613751614481   0.277986398227885   0.124953707037862   1.0000000
B2   B   0.888868037560975   0.277770518607386   0.124931757300620   1.0000000
B2   B   0.055544906925548   0.444423147184431   0.625028973087242   1.0000000
B2   B   0.222244410442847   0.944502060372150   0.625061545744918   1.0000000
B2   B   0.555576852815576   0.944455093074452   0.625028973087242   1.0000000
B2   B   0.389039313280068   0.444386248385511   0.625046292962138   1.0000000
B2   B   0.888868037560975   0.944430852286932   0.625068242699380   1.0000000
B2   B   0.055544906925548   0.944455093074452   0.124971026912758   1.0000000
B2   B   0.722013601772115   0.444386248385511   0.625046292962138   1.0000000
B2   B   0.388924316595967   0.944502060372150   0.124938454255082   1.0000000
B2   B   0.222282292412380   0.444413956778964   0.124956864231016   1.0000000
B2   B   0.222244410442847   0.611075683404032   0.124938454255082   1.0000000
B2   B   0.555555555555557   0.444444444444443   0.126112735870975   1.0000000
B2   B   0.722229481392614   0.944430852286932   0.124931757300620   1.0000000
B2   B   0.888798331033249   0.444413956778964   0.124956864231016   1.0000000
B2   B   0.055497939627850   0.611075683404032   0.625061545744918   1.0000000
B2   B   0.222282292412380   0.111201668966752   0.625043135768985   1.0000000
B2   B   0.722013601772115   0.610960686719932   0.625046292962138   1.0000000
B2   B   0.555586043221036   0.111201668966752   0.625043135768985   1.0000000
B2   B   0.888888888888886   0.111111111111114   0.625038235868314   1.0000000


