data_1
_audit_creation_method   'vasp2cif'
_cell_length_a    17.52789999999977
_cell_length_b    17.52789999999977
_cell_length_c    15.0
_cell_angle_alpha    90.0
_cell_angle_beta    90.0
_cell_angle_gamma    119.99999999999916

_symmetry_space_group_name_H-M    'P 1'
loop_
_atom_site_label
_atom_site_type_symbol
_atom_site_fract_x
_atom_site_fract_y
_atom_site_fract_z
_atom_site_occupancy
B2   B   0.912513500981608   0.956835698084032   0.110982448686116   1.0000000
B2   B   0.906371482498609   0.096235589217337   0.111060066009142   1.0000000
B2   B   0.901608069268146   0.236885810012109   0.111034284174043   1.0000000
B2   B   0.900335652207598   0.379876338922432   0.111015568508949   1.0000000
B2   B   0.901883437557100   0.523727203764544   0.111016969086448   1.0000000
B2   B   0.905392802720886   0.667658285330663   0.111069175717269   1.0000000
B2   B   0.911204810215000   0.811984606074756   0.111029620116741   1.0000000
B2   B   0.052177525640920   0.952707975075441   0.111026283706412   1.0000000
B2   B   0.049281948820417   0.094355275838482   0.111015192307754   1.0000000
B2   B   0.043501480422463   0.234397277865882   0.110995956115547   1.0000000
B2   B   0.041094821462176   0.377574537310728   0.111010058703868   1.0000000
B2   B   0.042327047668462   0.521876789889890   0.111049919782867   1.0000000
B2   B   0.047187692176703   0.665571071999557   0.111035212489036   1.0000000
B2   B   0.051318690991923   0.809196096571176   0.111044685495247   1.0000000
B2   B   0.193784929150604   0.950670804068547   0.111048618546275   1.0000000
B2   B   0.192437765229479   0.093610765170853   0.111061132104397   1.0000000
B2   B   0.186044606007635   0.232261862701384   0.111009929904080   1.0000000
B2   B   0.179730121081521   0.372448719830659   0.110933526893035   1.0000000
B2   B   0.180560658014197   0.518838049379884   0.110970854012189   1.0000000
B2   B   0.188997974769530   0.663047307675818   0.111005204046699   1.0000000
B2   B   0.193325423052618   0.806835525037990   0.111028903351236   1.0000000
B2   B   0.335906173796194   0.948526063682480   0.111083272860945   1.0000000
B2   B   0.334966525379196   0.093210420884541   0.111112732973820   1.0000000
B2   B   0.332893335689987   0.236360690147870   0.111085548150706   1.0000000
B2   B   0.321877525610113   0.370317086313563   0.110966832389773   1.0000000
B2   B   0.311234937783000   0.511101619233539   0.111012385348706   1.0000000
B2   B   0.330796203228375   0.656513791483218   0.111129834914211   1.0000000
B2   B   0.336665736574239   0.803280590371767   0.111030619339637   1.0000000
B2   B   0.478175055644835   0.946166219953887   0.111057248855998   1.0000000
B2   B   0.476761924724671   0.092476423333722   0.111091531455454   1.0000000
B2   B   0.475814666313218   0.238128883488482   0.111060431359950   1.0000000
B2   B   0.474378772968974   0.383604685201249   0.111049290571178   1.0000000
B2   B   0.480559201262610   0.797788592422873   0.110928919063971   1.0000000
B2   B   0.621620686942234   0.952519160209000   0.111017271686936   1.0000000
B2   B   0.618467014199830   0.094067320792283   0.111063458576007   1.0000000
B2   B   0.617406771707893   0.238051318511720   0.111012323798851   1.0000000
B2   B   0.617274378206912   0.383171080030514   0.110992532024225   1.0000000
B2   B   0.619724106323922   0.529177662771382   0.110994654617576   1.0000000
B2   B   0.633358058805577   0.689039980034778   0.110830643914043   1.0000000
B2   B   0.635226447562679   0.820867365488140   0.111101086428099   1.0000000
B2   B   0.769332158801131   0.957996855734032   0.111055378257572   1.0000000
B2   B   0.761821665776446   0.095685493874436   0.111084018482349   1.0000000
B2   B   0.759231151591499   0.237637643477637   0.111048144589716   1.0000000
B2   B   0.758895486499770   0.381369047497662   0.110986940230071   1.0000000
B2   B   0.760876663355695   0.525909632244688   0.111025569528851   1.0000000
B2   B   0.764006635724210   0.671231389130090   0.111031529954671   1.0000000
B2   B   0.777682693270716   0.820525956142542   0.111101035181391   1.0000000
N2   N   0.957911792016430   0.906867966805522   0.110982477937738   1.0000000
N2   N   0.955808424766493   0.049959158621495   0.111001410912099   1.0000000
N2   N   0.949861995451974   0.189605886887209   0.111018827346838   1.0000000
N2   N   0.946951087368417   0.331361294333734   0.110999964609690   1.0000000
N2   N   0.947665444300124   0.474965202431037   0.110998142515667   1.0000000
N2   N   0.951483073043765   0.618917590550373   0.111025842901632   1.0000000
N2   N   0.956272041214735   0.762697450765121   0.111041497880651   1.0000000
N2   N   0.098949936375540   0.904209302356167   0.111018142166543   1.0000000
N2   N   0.097829708223857   0.047220187648730   0.111008884635472   1.0000000
N2   N   0.092440702194596   0.187491567710273   0.110980034532890   1.0000000
N2   N   0.086702713666040   0.327765523200589   0.110965334928368   1.0000000
N2   N   0.086766942472980   0.472367806561156   0.111003602570120   1.0000000
N2   N   0.093119701895486   0.616965215314694   0.111010117641349   1.0000000
N2   N   0.097675803075643   0.760670991425333   0.111023009895759   1.0000000
N2   N   0.240887933692282   0.902162023579819   0.111026728238734   1.0000000
N2   N   0.240226739954484   0.045844531532296   0.111064899328735   1.0000000
N2   N   0.237691865362597   0.188174381058966   0.111044364616975   1.0000000
N2   N   0.228140610124495   0.324762469915710   0.110975386217225   1.0000000
N2   N   0.220204130041182   0.465468182577660   0.110873550293457   1.0000000
N2   N   0.233772233547229   0.613706601450385   0.110983352740594   1.0000000
N2   N   0.240376721693767   0.758359423039420   0.111013275963367   1.0000000
N2   N   0.383208126967346   0.899382136166207   0.111044811916555   1.0000000
N2   N   0.382091600069970   0.044475441484273   0.111094425060989   1.0000000
N2   N   0.380988830823439   0.188975813175753   0.111090883415926   1.0000000
N2   N   0.378272529410219   0.331798603861148   0.111036106935273   1.0000000
N2   N   0.353878996411549   0.459860509193129   0.110812724467180   1.0000000
N2   N   0.368181712646930   0.601924467597208   0.111320487263029   1.0000000
N2   N   0.384285514944920   0.753676066075274   0.111003667525900   1.0000000
N2   N   0.526461215175462   0.896948339196836   0.110986750345916   1.0000000
N2   N   0.523765503803103   0.043275156911346   0.111055992101043   1.0000000
N2   N   0.522706118261687   0.189062057077551   0.111034197408701   1.0000000
N2   N   0.521997859183172   0.334786194523224   0.110998888772432   1.0000000
N2   N   0.525478103855854   0.480679784208785   0.111076460774394   1.0000000
N2   N   0.546872414389335   0.679197849083653   0.110280285706647   1.0000000
N2   N   0.542934184759304   0.759912252929819   0.110837126528472   1.0000000
N2   N   0.675275177008229   0.912403069881485   0.111037749962594   1.0000000
N2   N   0.666792710777020   0.047457252337280   0.111032918539461   1.0000000
N2   N   0.664460206481585   0.189675257120047   0.111028715425611   1.0000000
N2   N   0.663905310498094   0.334019626358584   0.110970954788057   1.0000000
N2   N   0.665856453805923   0.479592931758774   0.110974933542967   1.0000000
N2   N   0.667071027045416   0.626631309098821   0.110919938652381   1.0000000
N2   N   0.687030831992710   0.779527688538121   0.111224415809960   1.0000000
N2   N   0.819739087236637   0.913110153208041   0.110981547593759   1.0000000
N2   N   0.812442033089882   0.051008093407839   0.111062998406301   1.0000000
N2   N   0.807082024436948   0.190193317506300   0.111061614807119   1.0000000
N2   N   0.805604738287920   0.332814008142917   0.110994439142139   1.0000000
N2   N   0.806842306187585   0.476859426946125   0.110993964638470   1.0000000
N2   N   0.809519231232042   0.621378582371173   0.111057043318248   1.0000000
N2   N   0.817095846473779   0.766307563210855   0.111018937503145   1.0000000
Sn2   Sn   0.467278940491322   0.557619398698510   0.111447173783354   1.0000000


