data_1
_audit_creation_method   'vasp2cif'
_cell_length_a    14.93631414619966
_cell_length_b    14.936314146199727
_cell_length_c    13.341276283792837
_cell_angle_alpha    90.0
_cell_angle_beta    90.0
_cell_angle_gamma    119.99999999999984

_symmetry_space_group_name_H-M    'P 1'
loop_
_atom_site_label
_atom_site_type_symbol
_atom_site_fract_x
_atom_site_fract_y
_atom_site_fract_z
_atom_site_occupancy
Ge2   Ge   0.422165729223260   0.377749531278294   0.375000000000000   1.0000000
Ge2   Ge   0.576559092652905   0.454946212993116   0.375000000000000   1.0000000
N2   N   0.111045251401235   0.055495453091411   0.125076820691146   1.0000000
N2   N   0.611074256166272   0.555555564680951   0.124275934674603   1.0000000
N2   N   0.444417714198275   0.055521775558057   0.125144563523052   1.0000000
N2   N   0.944413861573399   0.555550077172213   0.125244593172930   1.0000000
N2   N   0.777763159563941   0.055548246448638   0.125019240701097   1.0000000
N2   N   0.111083022912985   0.722208178123157   0.624865230946751   1.0000000
N2   N   0.444417714198275   0.722229271973554   0.624855436476949   1.0000000
N2   N   0.277670353275454   0.222144318352552   0.624939419644990   1.0000000
N2   N   0.777756439944076   0.722217048693561   0.625039409680242   1.0000000
N2   N   0.611083106097671   0.222198436022099   0.625000582285931   1.0000000
N2   N   0.944412855746063   0.222213819090651   0.624979966092080   1.0000000
N2   N   0.277751285469870   0.722220341821723   0.125128556598492   1.0000000
N2   N   0.111043796810976   0.222188565072153   0.124994145535896   1.0000000
N2   N   0.444396417308748   0.222173852856113   0.124948859747262   1.0000000
N2   N   0.611083106097671   0.722218003408900   0.124999417714069   1.0000000
N2   N   0.944413861573399   0.722197117734523   0.125244593172930   1.0000000
N2   N   0.777760013877019   0.222210746152849   0.125023751072738   1.0000000
N2   N   0.111075447949684   0.888851172182501   0.624856959841461   1.0000000
N2   N   0.444426890307865   0.888880111820597   0.624892217831738   1.0000000
N2   N   0.277670353275454   0.388859368256232   0.624939419644990   1.0000000
N2   N   0.611074256166272   0.388852024818648   0.625724065325398   1.0000000
N2   N   0.777760013877019   0.888882601057497   0.624976248927262   1.0000000
N2   N   0.944412585004661   0.388885518276895   0.624912086935475   1.0000000
N2   N   0.111045251401235   0.388883131643152   0.125076820691146   1.0000000
N2   N   0.277751285469870   0.888864276981475   0.125128556598492   1.0000000
N2   N   0.611095655659473   0.888888194205804   0.125069944983281   1.0000000
N2   N   0.444204724674907   0.388769029004118   0.125793303091661   1.0000000
N2   N   0.944412585004661   0.888860400061095   0.125087913064525   1.0000000
N2   N   0.777756439944076   0.388872724583844   0.124960590319758   1.0000000
N2   N   0.277733547783072   0.555558617912831   0.624793832500476   1.0000000
N2   N   0.111045251401235   0.055495453091411   0.624923179308854   1.0000000
N2   N   0.611074256166272   0.555555564680951   0.625724065325398   1.0000000
N2   N   0.444417714198275   0.055521775558057   0.624855436476949   1.0000000
N2   N   0.944413861573399   0.555550077172213   0.624755406827069   1.0000000
N2   N   0.111075447949684   0.555557609100512   0.125143040158540   1.0000000
N2   N   0.777763159563941   0.055548246448638   0.624980759298902   1.0000000
N2   N   0.277733547783072   0.055508263203576   0.125206167499525   1.0000000
N2   N   0.444396417308748   0.555555897785971   0.124948859747262   1.0000000
N2   N   0.777725106258173   0.555529219795755   0.125222341554318   1.0000000
N2   N   0.611095655659473   0.055540794786997   0.125069944983281   1.0000000
N2   N   0.444396417308748   0.555555897785971   0.625051140252737   1.0000000
N2   N   0.944412855746063   0.055532369988748   0.125020033907920   1.0000000
N2   N   0.277751285469870   0.722220341821723   0.624871443401508   1.0000000
N2   N   0.111043796810976   0.222188565072153   0.625005854464105   1.0000000
N2   N   0.444396417308748   0.222173852856113   0.625051140252737   1.0000000
N2   N   0.611083106097671   0.722218003408900   0.625000582285931   1.0000000
N2   N   0.944413861573399   0.722197117734523   0.624755406827069   1.0000000
N2   N   0.777760013877019   0.222210746152849   0.624976248927262   1.0000000
N2   N   0.111083022912985   0.722208178123157   0.125134769053249   1.0000000
N2   N   0.444417714198275   0.722229271973554   0.125144563523052   1.0000000
N2   N   0.277670353275454   0.222144318352552   0.125060580355010   1.0000000
N2   N   0.777756439944076   0.722217048693561   0.124960590319758   1.0000000
N2   N   0.611083106097671   0.222198436022099   0.124999417714069   1.0000000
N2   N   0.944412855746063   0.222213819090651   0.125020033907920   1.0000000
N2   N   0.111045251401235   0.388883131643152   0.624923179308854   1.0000000
N2   N   0.277751285469870   0.888864276981475   0.624871443401508   1.0000000
N2   N   0.611095655659473   0.888888194205804   0.624930055016719   1.0000000
N2   N   0.444204724674907   0.388769029004118   0.624206696908340   1.0000000
N2   N   0.944412585004661   0.888860400061095   0.624912086935475   1.0000000
N2   N   0.111075447949684   0.888851172182501   0.125143040158540   1.0000000
N2   N   0.777756439944076   0.388872724583844   0.625039409680242   1.0000000
N2   N   0.444426890307865   0.888880111820597   0.125107782168261   1.0000000
N2   N   0.277670353275454   0.388859368256232   0.125060580355010   1.0000000
N2   N   0.277733547783072   0.555558617912831   0.125206167499525   1.0000000
N2   N   0.611074256166272   0.388852024818648   0.124275934674603   1.0000000
N2   N   0.777760013877019   0.888882601057497   0.125023751072738   1.0000000
N2   N   0.944412585004661   0.388885518276895   0.125087913064525   1.0000000
N2   N   0.111075447949684   0.555557609100512   0.624856959841461   1.0000000
N2   N   0.277733547783072   0.055508263203576   0.624793832500476   1.0000000
N2   N   0.777725106258173   0.555529219795755   0.624777658445682   1.0000000
N2   N   0.611095655659473   0.055540794786997   0.624930055016719   1.0000000
N2   N   0.944412855746063   0.055532369988748   0.624979966092080   1.0000000
N2   N   0.054899819076210   0.110689729148844   0.375000000000000   1.0000000
N2   N   0.556127829507313   0.624449722875843   0.375000000000000   1.0000000
N2   N   0.386611073219089   0.102109034070281   0.375000000000000   1.0000000
N2   N   0.891250168391945   0.612291750862645   0.375000000000000   1.0000000
N2   N   0.723288569216125   0.110127928406969   0.375000000000000   1.0000000
N2   N   0.055553335872533   0.777779942277160   0.875000000000000   1.0000000
N2   N   0.388897782341240   0.777780885962332   0.875000000000000   1.0000000
N2   N   0.222224712399419   0.277779022866377   0.875000000000000   1.0000000
N2   N   0.722223189646168   0.777779619916516   0.875000000000000   1.0000000
N2   N   0.555555671686586   0.277777585161985   0.875000000000000   1.0000000
N2   N   0.888891991680173   0.277778637021271   0.875000000000000   1.0000000
N2   N   0.220994252688696   0.777163793011016   0.375000000000000   1.0000000
N2   N   0.054899819076210   0.277543423260702   0.375000000000000   1.0000000
N2   N   0.372765997958634   0.249015008447278   0.375000000000000   1.0000000
N2   N   0.555487673385251   0.783777145612482   0.375000000000000   1.0000000
N2   N   0.893860056168695   0.782594870374341   0.375000000000000   1.0000000
N2   N   0.724839389639748   0.274888637597959   0.375000000000000   1.0000000
N2   N   0.055556300369283   0.944449411402269   0.875000000000000   1.0000000
N2   N   0.388897782341240   0.944450229712244   0.875000000000000   1.0000000
N2   N   0.222225223529096   0.444440627043307   0.875000000000000   1.0000000
N2   N   0.555547706868318   0.444440520100823   0.875000000000000   1.0000000
N2   N   0.722225013079006   0.944446562331289   0.875000000000000   1.0000000
N2   N   0.888888924604669   0.444441636016313   0.875000000000000   1.0000000
N2   N   0.054539841273784   0.445085982310650   0.375000000000000   1.0000000
N2   N   0.220373405563133   0.940973782662217   0.375000000000000   1.0000000
N2   N   0.555390962104935   0.944362147719132   0.375000000000000   1.0000000
N2   N   0.372765997958634   0.457084322844691   0.375000000000000   1.0000000
N2   N   0.890177149164204   0.946392391087594   0.375000000000000   1.0000000
N2   N   0.734244808635362   0.443041230344717   0.375000000000000   1.0000000
N2   N   0.222226192593206   0.611107497527503   0.875000000000000   1.0000000
N2   N   0.055555952913803   0.111112512845448   0.875000000000000   1.0000000
N2   N   0.555555671686586   0.611111419857937   0.875000000000000   1.0000000
N2   N   0.388896190901612   0.111118551085130   0.875000000000000   1.0000000
N2   N   0.888883480899011   0.611108407116177   0.875000000000000   1.0000000
N2   N   0.055633347738394   0.611607721807465   0.375000000000000   1.0000000
N2   N   0.722225013079006   0.111111784081053   0.875000000000000   1.0000000
N2   N   0.214696630284385   0.101571558521170   0.375000000000000   1.0000000
N2   N   0.386611073219089   0.617835372482151   0.375000000000000   1.0000000
N2   N   0.734244808635362   0.624536911623981   0.375000000000000   1.0000000
N2   N   0.555487673385251   0.105043861106104   0.375000000000000   1.0000000
N2   N   0.388896190901612   0.611110973149825   0.875000000000000   1.0000000
N2   N   0.889524886042675   0.111429109688009   0.375000000000000   1.0000000
N2   N   0.222226279575730   0.777779806454533   0.875000000000000   1.0000000
N2   N   0.055555952913803   0.277776773401691   0.875000000000000   1.0000000
N2   N   0.388894737285171   0.277784574749896   0.875000000000000   1.0000000
N2   N   0.555560479316893   0.777781322128199   0.875000000000000   1.0000000
N2   N   0.888888924604669   0.777780621921693   0.875000000000000   1.0000000
N2   N   0.722223189646168   0.277776903062988   0.875000000000000   1.0000000
N2   N   0.055633347738394   0.777358959264264   0.375000000000000   1.0000000
N2   N   0.387483439109729   0.779518477270252   0.375000000000000   1.0000000
N2   N   0.220618987093724   0.276976160213530   0.375000000000000   1.0000000
N2   N   0.724839389639748   0.783284085375125   0.375000000000000   1.0000000
N2   N   0.556127829507313   0.265011439964806   0.375000000000000   1.0000000
N2   N   0.890177149164204   0.277118091409943   0.375000000000000   1.0000000
N2   N   0.055556300369283   0.444440222300343   0.875000000000000   1.0000000
N2   N   0.222226192593206   0.944452028399039   0.875000000000000   1.0000000
N2   N   0.555560208950761   0.944446771142043   0.875000000000000   1.0000000
N2   N   0.388894737285171   0.444443495868610   0.875000000000000   1.0000000
N2   N   0.888891991680173   0.944446687992238   0.875000000000000   1.0000000
N2   N   0.054539841273784   0.942787192296463   0.375000000000000   1.0000000
N2   N   0.722219136382192   0.444442742482290   0.875000000000000   1.0000000
N2   N   0.387483439109729   0.941298295172813   0.375000000000000   1.0000000
N2   N   0.214696630284385   0.446458405096550   0.375000000000000   1.0000000
N2   N   0.220373405563133   0.612732956234251   0.375000000000000   1.0000000
N2   N   0.723288569216125   0.946493974142493   0.375000000000000   1.0000000
N2   N   0.893860056168695   0.444598519127690   0.375000000000000   1.0000000
N2   N   0.055553335872533   0.611106726928709   0.875000000000000   1.0000000
N2   N   0.222225223529096   0.111117929819125   0.875000000000000   1.0000000
N2   N   0.722219136382192   0.611109727233238   0.875000000000000   1.0000000
N2   N   0.555560479316893   0.111112490522030   0.875000000000000   1.0000000
N2   N   0.888892264380884   0.111112798857114   0.875000000000000   1.0000000
B2   B   0.106304775439096   0.051260904074101   0.375000000000000   1.0000000
B2   B   0.627582575742861   0.589846319530870   0.375000000000000   1.0000000
B2   B   0.444269818391317   0.049979338955311   0.375000000000000   1.0000000
B2   B   0.946001444846860   0.555611956833134   0.375000000000000   1.0000000
B2   B   0.779182127704235   0.056257730518785   0.375000000000000   1.0000000
B2   B   0.111116326578769   0.722224829956049   0.875000000000000   1.0000000
B2   B   0.444459248074954   0.722260125329788   0.875000000000000   1.0000000
B2   B   0.277733329445944   0.222186085750179   0.875000000000000   1.0000000
B2   B   0.777803304188923   0.722263831381189   0.875000000000000   1.0000000
B2   B   0.611136074310536   0.222192329833357   0.875000000000000   1.0000000
B2   B   0.944423072917939   0.222206623312605   0.875000000000000   1.0000000
B2   B   0.276713792321710   0.723138590446121   0.375000000000000   1.0000000
B2   B   0.109230738679041   0.221282036006185   0.375000000000000   1.0000000
B2   B   0.442976410562270   0.209982980658036   0.375000000000000   1.0000000
B2   B   0.613398949460817   0.733339058448965   0.375000000000000   1.0000000
B2   B   0.946001444846860   0.723722821347061   0.375000000000000   1.0000000
B2   B   0.779894047299655   0.220232020401425   0.375000000000000   1.0000000
B2   B   0.111105436199170   0.888885613013988   0.875000000000000   1.0000000
B2   B   0.444459686144711   0.888896509739020   0.875000000000000   1.0000000
B2   B   0.277733329445944   0.388880577029093   0.875000000000000   1.0000000
B2   B   0.611140486231021   0.388874863885272   0.875000000000000   1.0000000
B2   B   0.777790372708438   0.888919290572951   0.875000000000000   1.0000000
B2   B   0.944444494248923   0.388874841227412   0.875000000000000   1.0000000
B2   B   0.106304775439096   0.388377204698323   0.375000000000000   1.0000000
B2   B   0.276713792321710   0.886908535208916   0.375000000000000   1.0000000
B2   B   0.612550181967426   0.892629292321909   0.375000000000000   1.0000000
B2   B   0.945903794027899   0.891386546774687   0.375000000000000   1.0000000
B2   B   0.786049531983137   0.386376037024089   0.375000000000000   1.0000000
B2   B   0.277765696753092   0.555571263524364   0.875000000000000   1.0000000
B2   B   0.111077397091525   0.055536091193296   0.875000000000000   1.0000000
B2   B   0.611140486231021   0.555598955679079   0.875000000000000   1.0000000
B2   B   0.444459248074954   0.055532456078501   0.875000000000000   1.0000000
B2   B   0.944458852321769   0.555553526595940   0.875000000000000   1.0000000
B2   B   0.110030229685169   0.555957782341235   0.375000000000000   1.0000000
B2   B   0.777782283621010   0.055557808477173   0.875000000000000   1.0000000
B2   B   0.274844461820236   0.049962122316287   0.375000000000000   1.0000000
B2   B   0.442976410562270   0.566326763237571   0.375000000000000   1.0000000
B2   B   0.782330579019140   0.557831956176239   0.375000000000000   1.0000000
B2   B   0.612550181967426   0.053254222978846   0.375000000000000   1.0000000
B2   B   0.444453187233658   0.555601989980688   0.875000000000000   1.0000000
B2   B   0.944657747618495   0.056416679188560   0.375000000000000   1.0000000
B2   B   0.277783594078714   0.722234035780990   0.875000000000000   1.0000000
B2   B   0.111057826726776   0.222195580030052   0.875000000000000   1.0000000
B2   B   0.444453187233658   0.222184530586305   0.875000000000000   1.0000000
B2   B   0.611136074310536   0.722277077810507   0.875000000000000   1.0000000
B2   B   0.944458852321769   0.722238659059166   0.875000000000000   1.0000000
B2   B   0.777790372708438   0.222204415468816   0.875000000000000   1.0000000
B2   B   0.110752450405033   0.722042891869181   0.375000000000000   1.0000000
B2   B   0.444269818391317   0.727623812769341   0.375000000000000   1.0000000
B2   B   0.265579861306755   0.208751166090619   0.375000000000000   1.0000000
B2   B   0.786049531983137   0.733006828292377   0.375000000000000   1.0000000
B2   B   0.613398949460817   0.213393224345181   0.375000000000000   1.0000000
B2   B   0.944657747618495   0.221574401763271   0.375000000000000   1.0000000
B2   B   0.111077397091525   0.388874639231558   0.875000000000000   1.0000000
B2   B   0.277783594078714   0.888882891631053   0.875000000000000   1.0000000
B2   B   0.611129607965566   0.888916720214911   0.875000000000000   1.0000000
B2   B   0.444440706866984   0.388887020100156   0.875000000000000   1.0000000
B2   B   0.944444494248923   0.888902986354839   0.875000000000000   1.0000000
B2   B   0.110030229685169   0.887405780677264   0.375000000000000   1.0000000
B2   B   0.777803304188923   0.388872806141062   0.875000000000000   1.0000000
B2   B   0.444415959703284   0.888874646518307   0.375000000000000   1.0000000
B2   B   0.265579861306756   0.390162028549465   0.375000000000000   1.0000000
B2   B   0.274844461820236   0.558215672837285   0.375000000000000   1.0000000
B2   B   0.627582575742861   0.371069589545322   0.375000000000000   1.0000000
B2   B   0.779894047299655   0.892995360231558   0.375000000000000   1.0000000
B2   B   0.945903794027899   0.387850580586541   0.375000000000000   1.0000000
B2   B   0.111105436199170   0.555553156518510   0.875000000000000   1.0000000
B2   B   0.277765696753092   0.055527766562064   0.875000000000000   1.0000000
B2   B   0.777807086308652   0.555570209820994   0.875000000000000   1.0000000
B2   B   0.611129607965566   0.055546221083984   0.875000000000000   1.0000000
B2   B   0.944423072917939   0.055549782938670   0.875000000000000   1.0000000
B2   B   0.055423207321042   0.111007182311605   0.124806556482612   1.0000000
B2   B   0.555566913149972   0.611264841444933   0.124293340344786   1.0000000
B2   B   0.388788296120131   0.110882003391576   0.124776887320373   1.0000000
B2   B   0.888978868604214   0.611156100968778   0.124976739898656   1.0000000
B2   B   0.722219531452153   0.111079128616778   0.124873683800635   1.0000000
B2   B   0.055557747309986   0.777755010968791   0.625046251134272   1.0000000
B2   B   0.388840434526026   0.777816050956312   0.625080389768846   1.0000000
B2   B   0.221966096285927   0.277649714809632   0.625477635640672   1.0000000
B2   B   0.722262580250596   0.777876267337517   0.625280610142986   1.0000000
B2   B   0.555566913149972   0.277635405038374   0.625706659655214   1.0000000
B2   B   0.888865759335947   0.277759376116308   0.625136756955692   1.0000000
B2   B   0.222184244257972   0.777758788795654   0.124913074869006   1.0000000
B2   B   0.055423207321042   0.277749358342772   0.124806556482612   1.0000000
B2   B   0.388648548384666   0.277397848600922   0.124299406737922   1.0000000
B2   B   0.555540918062867   0.777869086352369   0.124845915524954   1.0000000
B2   B   0.888932446759964   0.777814526656609   0.124869899062358   1.0000000
B2   B   0.722262580250596   0.277719646246415   0.124719389857014   1.0000000
B2   B   0.055482631523985   0.944347413864070   0.625105546662223   1.0000000
B2   B   0.388840434526026   0.944357716903048   0.625080389768846   1.0000000
B2   B   0.222024882016859   0.444504072552116   0.625217334468634   1.0000000
B2   B   0.555679959460052   0.444506646396691   0.625699292313265   1.0000000
B2   B   0.722219531452153   0.944473736168711   0.625126316199365   1.0000000
B2   B   0.888932446759964   0.444451253436691   0.625130100937642   1.0000000
B2   B   0.055482631523985   0.444468550993244   0.124894453337777   1.0000000
B2   B   0.222143941151369   0.944309742852012   0.124930886468947   1.0000000
B2   B   0.555539838554029   0.944436585943680   0.124902120253940   1.0000000
B2   B   0.388648548384666   0.444584033117080   0.124299406737922   1.0000000
B2   B   0.888865759335947   0.944439716552975   0.124863243044308   1.0000000
B2   B   0.722350596490660   0.444447053148786   0.124327813421767   1.0000000
B2   B   0.222143941151369   0.611167531632692   0.625069113531053   1.0000000
B2   B   0.055423207321042   0.111007182311605   0.625193443517387   1.0000000
B2   B   0.555566913149972   0.611264841444933   0.625706659655214   1.0000000
B2   B   0.388788296120131   0.110882003391576   0.625223112679628   1.0000000
B2   B   0.888978868604214   0.611156100968778   0.625023260101344   1.0000000
B2   B   0.055557747309986   0.611136069674530   0.124953748865728   1.0000000
B2   B   0.722219531452153   0.111079128616778   0.625126316199365   1.0000000
B2   B   0.222024882016859   0.110854142798078   0.124782665531366   1.0000000
B2   B   0.388788296120131   0.611239626061897   0.124776887320373   1.0000000
B2   B   0.722350596490660   0.611236876675211   0.124327813421767   1.0000000
B2   B   0.555540918062867   0.111005165043834   0.124845915524954   1.0000000
B2   B   0.388788296120131   0.611239626061897   0.625223112679628   1.0000000
B2   B   0.888841661786053   0.111087497559698   0.124858946687678   1.0000000
B2   B   0.222184244257972   0.777758788795654   0.625086925130995   1.0000000
B2   B   0.055423207321042   0.277749358342772   0.625193443517387   1.0000000
B2   B   0.388648548384666   0.277397848600922   0.625700593262078   1.0000000
B2   B   0.555540918062867   0.777869086352369   0.625154084475046   1.0000000
B2   B   0.888932446759964   0.777814526656609   0.625130100937642   1.0000000
B2   B   0.722262580250596   0.277719646246415   0.625280610142986   1.0000000
B2   B   0.055557747309986   0.777755010968791   0.124953748865728   1.0000000
B2   B   0.388840434526026   0.777816050956312   0.124919610231154   1.0000000
B2   B   0.221966096285927   0.277649714809632   0.124522364359327   1.0000000
B2   B   0.722262580250596   0.777876267337517   0.124719389857014   1.0000000
B2   B   0.555566913149972   0.277635405038374   0.124293340344786   1.0000000
B2   B   0.888865759335947   0.277759376116308   0.124863243044308   1.0000000
B2   B   0.055482631523985   0.444468550993244   0.625105546662223   1.0000000
B2   B   0.222143941151369   0.944309742852012   0.625069113531053   1.0000000
B2   B   0.555539838554029   0.944436585943680   0.625097879746061   1.0000000
B2   B   0.388648548384666   0.444584033117080   0.625700593262078   1.0000000
B2   B   0.888865759335947   0.944439716552975   0.625136756955692   1.0000000
B2   B   0.055482631523985   0.944347413864070   0.124894453337777   1.0000000
B2   B   0.722350596490660   0.444447053148786   0.625672186578234   1.0000000
B2   B   0.388840434526026   0.944357716903048   0.124919610231154   1.0000000
B2   B   0.222024882016859   0.444504072552116   0.124782665531366   1.0000000
B2   B   0.222143941151369   0.611167531632692   0.124930886468947   1.0000000
B2   B   0.555679959460052   0.444506646396691   0.124300707686736   1.0000000
B2   B   0.722219531452153   0.944473736168711   0.124873683800635   1.0000000
B2   B   0.888932446759964   0.444451253436691   0.124869899062358   1.0000000
B2   B   0.055557747309986   0.611136069674530   0.625046251134272   1.0000000
B2   B   0.222024882016859   0.110854142798078   0.625217334468634   1.0000000
B2   B   0.722350596490660   0.611236876675211   0.625672186578234   1.0000000
B2   B   0.555540918062867   0.111005165043834   0.625154084475046   1.0000000
B2   B   0.888841661786053   0.111087497559698   0.625141053312323   1.0000000


