data_1
_audit_creation_method   'vasp2cif'
_cell_length_a    17.52789999999977
_cell_length_b    17.52789999999977
_cell_length_c    15.0
_cell_angle_alpha    90.0
_cell_angle_beta    90.0
_cell_angle_gamma    119.99999999999916

_symmetry_space_group_name_H-M    'P 1'
loop_
_atom_site_label
_atom_site_type_symbol
_atom_site_fract_x
_atom_site_fract_y
_atom_site_fract_z
_atom_site_occupancy
B2   B   0.907916386821191   0.956977242156724   0.111057457160182   1.0000000
B2   B   0.906964115587314   0.098373376938446   0.111070750927410   1.0000000
B2   B   0.905846305036801   0.239716664612344   0.111083437230774   1.0000000
B2   B   0.904036416937912   0.381234352789565   0.110994950803518   1.0000000
B2   B   0.898993501856741   0.522601202056577   0.111030123134885   1.0000000
B2   B   0.900227722458755   0.665315713421683   0.111085219592610   1.0000000
B2   B   0.905716645179001   0.812453800783830   0.111088264183773   1.0000000
B2   B   0.048308807388130   0.953633542255494   0.111020272955825   1.0000000
B2   B   0.049418185596952   0.097054344661131   0.111029214205880   1.0000000
B2   B   0.049129873830979   0.239716948668076   0.111051100258826   1.0000000
B2   B   0.047529024825705   0.381856848005513   0.111029247064452   1.0000000
B2   B   0.044229252592933   0.523469176825672   0.111074683413297   1.0000000
B2   B   0.043595184126282   0.665174197756851   0.111045524754645   1.0000000
B2   B   0.044688817480014   0.808097347130855   0.110995630126737   1.0000000
B2   B   0.187846494231771   0.949827737658665   0.111005022967939   1.0000000
B2   B   0.191474558628888   0.095333066237582   0.111006286500584   1.0000000
B2   B   0.191037408004682   0.237302633478185   0.110973500360840   1.0000000
B2   B   0.190903412252720   0.381425974889896   0.110985736746644   1.0000000
B2   B   0.188235327815794   0.524043925402727   0.111096536305114   1.0000000
B2   B   0.187472230728825   0.665650217828741   0.111143536447248   1.0000000
B2   B   0.187004276191603   0.807284097704764   0.111033509338534   1.0000000
B2   B   0.329990842847589   0.948703628028115   0.111043441774420   1.0000000
B2   B   0.330154286014258   0.089957161262700   0.111040151374140   1.0000000
B2   B   0.336264631192730   0.237236170771948   0.111023391944677   1.0000000
B2   B   0.331969924273882   0.378229601639539   0.110999213995545   1.0000000
B2   B   0.331393915926832   0.524540616847297   0.111089016646923   1.0000000
B2   B   0.331597702225463   0.667036534289079   0.111138213369204   1.0000000
B2   B   0.330330635957547   0.808018034348640   0.111061115934515   1.0000000
B2   B   0.473854989439748   0.950678275349103   0.111013679879979   1.0000000
B2   B   0.473245704943834   0.088185795561563   0.111024660503376   1.0000000
B2   B   0.471896121559613   0.223846928645793   0.110978316189072   1.0000000
B2   B   0.485940494513764   0.369535414200639   0.110892350586370   1.0000000
B2   B   0.476513505097492   0.676315659542118   0.111010006139702   1.0000000
B2   B   0.474654367899284   0.813131755925478   0.111035847043777   1.0000000
B2   B   0.619037838613768   0.955210067151789   0.110989871444324   1.0000000
B2   B   0.618147682295571   0.093008630195169   0.111038454736151   1.0000000
B2   B   0.617150009841879   0.230379047560294   0.110995283641508   1.0000000
B2   B   0.614724837471482   0.364312069870766   0.111002367590990   1.0000000
B2   B   0.625035089112051   0.685669092869975   0.110757601966839   1.0000000
B2   B   0.620576292178542   0.818191045463485   0.110995463322754   1.0000000
B2   B   0.764336282301944   0.957594228177708   0.111014117827409   1.0000000
B2   B   0.763009277814282   0.097259287220472   0.111073488191125   1.0000000
B2   B   0.761998559982647   0.237486525865541   0.111034344564943   1.0000000
B2   B   0.760477117016950   0.378491732802336   0.111015568571993   1.0000000
B2   B   0.752588039825801   0.521991343996041   0.111081676226590   1.0000000
B2   B   0.763000695509626   0.671879254396734   0.110953237351235   1.0000000
B2   B   0.767101442380283   0.818678736974474   0.111054128543974   1.0000000
In2   In   0.499647656542456   0.522094895452382   0.111602202763569   1.0000000
N2   N   0.953608780295323   0.907369440970210   0.111041928526944   1.0000000
N2   N   0.954972428159769   0.051210424660481   0.111037674754838   1.0000000
N2   N   0.954158525387843   0.193018436042479   0.111064337750007   1.0000000
N2   N   0.952363253466552   0.334614643389657   0.111012996947855   1.0000000
N2   N   0.948152939216432   0.476084576352253   0.110998685472004   1.0000000
N2   N   0.947094164979794   0.617406364169245   0.111024650230598   1.0000000
N2   N   0.949107749443717   0.760718084648532   0.111028978363990   1.0000000
N2   N   0.093076005610960   0.903383065458351   0.110975642571485   1.0000000
N2   N   0.096601563032556   0.048967558137736   0.110997607660713   1.0000000
N2   N   0.096677556641348   0.191644153289348   0.111002338797732   1.0000000
N2   N   0.095933204360828   0.334602055981327   0.110999717150756   1.0000000
N2   N   0.092961922153414   0.476670088683644   0.111054836195679   1.0000000
N2   N   0.091667588537046   0.618193428799747   0.111084425647869   1.0000000
N2   N   0.091504373758134   0.760013204641827   0.110991208538403   1.0000000
N2   N   0.234975542707489   0.902129220697855   0.111001731226109   1.0000000
N2   N   0.236089432476300   0.044994936944185   0.110998990062457   1.0000000
N2   N   0.240956846303840   0.191448124414556   0.111000779768836   1.0000000
N2   N   0.237815852603379   0.331458150247769   0.110927548946597   1.0000000
N2   N   0.236335372647844   0.476737445372156   0.111025397723799   1.0000000
N2   N   0.236023341846792   0.618986128209769   0.111141944436674   1.0000000
N2   N   0.234953036236930   0.760396274640064   0.111077637604035   1.0000000
N2   N   0.378469662580177   0.902734631980812   0.111012145794172   1.0000000
N2   N   0.378271047084586   0.043327482646661   0.111032119348946   1.0000000
N2   N   0.378762024083168   0.184829963032891   0.111022269244072   1.0000000
N2   N   0.389884169340740   0.336236278496970   0.110978798099689   1.0000000
N2   N   0.370761298393088   0.469843072349546   0.111115676478538   1.0000000
N2   N   0.380825105919021   0.620810273236321   0.111110847314512   1.0000000
N2   N   0.379091514824473   0.762210434871231   0.111074705625256   1.0000000
N2   N   0.523446417500808   0.906888303793371   0.110987296969675   1.0000000
N2   N   0.522746583398003   0.044523312966870   0.111013555596197   1.0000000
N2   N   0.522250254745337   0.181679099603726   0.110967521729460   1.0000000
N2   N   0.522018251968106   0.315764727951352   0.110923940843346   1.0000000
N2   N   0.571764452954392   0.461951524694270   0.110895668626190   1.0000000
N2   N   0.534390176783466   0.643876216612818   0.110776463381961   1.0000000
N2   N   0.524680381576430   0.770176759144319   0.110994936200453   1.0000000
N2   N   0.668997328201055   0.911345460614707   0.110946213985979   1.0000000
N2   N   0.667661611392539   0.049107107560132   0.111030390771134   1.0000000
N2   N   0.666761286420223   0.187413880509444   0.111000567511510   1.0000000
N2   N   0.666027660815044   0.325509396011261   0.110995447252643   1.0000000
N2   N   0.647355579660338   0.459506169818048   0.111007433619385   1.0000000
N2   N   0.672846809702819   0.640306139791366   0.110350659938994   1.0000000
N2   N   0.673814640466304   0.777156442012486   0.111006962651180   1.0000000
N2   N   0.813775158823197   0.911967021720285   0.111019473091376   1.0000000
N2   N   0.811926058522796   0.051678670498679   0.111043608049683   1.0000000
N2   N   0.810643749848424   0.192004743244223   0.111077738506480   1.0000000
N2   N   0.808854765783720   0.333037955027457   0.110974826221224   1.0000000
N2   N   0.800917061756328   0.474198666640140   0.111018726552107   1.0000000
N2   N   0.802529586298405   0.616588567623020   0.111122258060817   1.0000000
N2   N   0.811321257484709   0.767351003601851   0.111089319874825   1.0000000


