data_1
_audit_creation_method   'vasp2cif'
_cell_length_a    17.52789999999977
_cell_length_b    17.52789999999977
_cell_length_c    15.0
_cell_angle_alpha    90.0
_cell_angle_beta    90.0
_cell_angle_gamma    119.99999999999916

_symmetry_space_group_name_H-M    'P 1'
loop_
_atom_site_label
_atom_site_type_symbol
_atom_site_fract_x
_atom_site_fract_y
_atom_site_fract_z
_atom_site_occupancy
Ge2   Ge   0.410849507244624   0.476499939435440   0.109943484173235   1.0000000
B2   B   0.908816801031001   0.955051765320622   0.110659167039457   1.0000000
B2   B   0.907941660826671   0.097862850314062   0.110740527298418   1.0000000
B2   B   0.907208159459315   0.240376973096010   0.110788530989967   1.0000000
B2   B   0.905648664006008   0.382303148533823   0.110732026502078   1.0000000
B2   B   0.902836890525709   0.523886117037466   0.110689348842158   1.0000000
B2   B   0.905491687050828   0.666465042399884   0.110747917856292   1.0000000
B2   B   0.908474046846220   0.811357746630115   0.110662338843368   1.0000000
B2   B   0.048754612640411   0.950358846954625   0.110687314362113   1.0000000
B2   B   0.048433584066819   0.093532843449629   0.110742667724011   1.0000000
B2   B   0.049870183976539   0.238621562038631   0.110788145787220   1.0000000
B2   B   0.050096689515710   0.381930127425732   0.110725414673906   1.0000000
B2   B   0.048289365172674   0.523836559279267   0.110685514450538   1.0000000
B2   B   0.048299378052756   0.665543268994997   0.110684942405046   1.0000000
B2   B   0.048691087061210   0.807770884627167   0.110696166263952   1.0000000
B2   B   0.190810606221670   0.948368619508279   0.110724122422854   1.0000000
B2   B   0.188580202872975   0.088351349937803   0.110688170921696   1.0000000
B2   B   0.187911184808852   0.230795548309961   0.110777489694696   1.0000000
B2   B   0.193998762756843   0.380321868220205   0.110713849312793   1.0000000
B2   B   0.193041645343781   0.524372148843784   0.110772664407519   1.0000000
B2   B   0.192332185927600   0.666167201536551   0.110742337323949   1.0000000
B2   B   0.191639941256616   0.807400896425154   0.110715704984455   1.0000000
B2   B   0.334675616906481   0.949394561210080   0.110805409008357   1.0000000
B2   B   0.333152593102781   0.088066130240065   0.110725129352467   1.0000000
B2   B   0.328150035635446   0.221852148665378   0.110885888097008   1.0000000
B2   B   0.326239673743149   0.355193292153763   0.111149596369070   1.0000000
B2   B   0.337711539905327   0.533258788357014   0.110432311152242   1.0000000
B2   B   0.337212490195894   0.670547784792287   0.110987315103885   1.0000000
B2   B   0.335813342383277   0.809682912677745   0.110763222470677   1.0000000
B2   B   0.478996368587193   0.952608958906968   0.110774926698539   1.0000000
B2   B   0.477820369153093   0.093385537926010   0.110817128180860   1.0000000
B2   B   0.476169027345593   0.233515858648958   0.110676292937785   1.0000000
B2   B   0.468725623045347   0.367969214353142   0.110804751357721   1.0000000
B2   B   0.484286128973494   0.670183546859952   0.110940806730352   1.0000000
B2   B   0.480793682813346   0.811606502514858   0.110856117545683   1.0000000
B2   B   0.622953458608906   0.956302234597693   0.110741533278232   1.0000000
B2   B   0.621687609146093   0.097503068216201   0.110736092164607   1.0000000
B2   B   0.620260847202424   0.239589020294834   0.110737799868483   1.0000000
B2   B   0.615904352809470   0.381774379631511   0.110692469274754   1.0000000
B2   B   0.614796827986801   0.536796246055360   0.110809951410932   1.0000000
B2   B   0.633554058224714   0.681801807525518   0.110711376980533   1.0000000
B2   B   0.625283409304748   0.816465962697620   0.110752652448958   1.0000000
B2   B   0.766592080916324   0.957184463532585   0.110674212246288   1.0000000
B2   B   0.765107631278695   0.098684800470804   0.110736613516611   1.0000000
B2   B   0.763694020513381   0.240497859927960   0.110738154396442   1.0000000
B2   B   0.760977906960232   0.382362698818034   0.110731655597270   1.0000000
B2   B   0.756274270632132   0.524920456522406   0.110683735994513   1.0000000
B2   B   0.768003915553928   0.672270383045870   0.110618151756615   1.0000000
B2   B   0.769776937433951   0.816927184497775   0.110579136845182   1.0000000
N2   N   0.954798702056439   0.905658347174921   0.110649568735080   1.0000000
N2   N   0.954625451181856   0.049160973657318   0.110709215051870   1.0000000
N2   N   0.955126401784511   0.192816510606055   0.110774037472297   1.0000000
N2   N   0.954754252937866   0.335388629100045   0.110729013713956   1.0000000
N2   N   0.952496671448964   0.477197546940001   0.110663383127102   1.0000000
N2   N   0.952802924511649   0.618806485484323   0.110711896001939   1.0000000
N2   N   0.953854847344621   0.761595185130474   0.110712745439931   1.0000000
N2   N   0.095943804523354   0.902285378753550   0.110675944904476   1.0000000
N2   N   0.094651974144917   0.044329657233000   0.110693095613491   1.0000000
N2   N   0.094566266461834   0.187900983766279   0.110755504298078   1.0000000
N2   N   0.098711062051836   0.334446794047093   0.110730707708531   1.0000000
N2   N   0.097588673419201   0.477082931971877   0.110699949514221   1.0000000
N2   N   0.096821067244514   0.618682431427869   0.110665570195282   1.0000000
N2   N   0.096374822745606   0.760283098328727   0.110677841251435   1.0000000
N2   N   0.239273530451909   0.901807361992929   0.110745588551245   1.0000000
N2   N   0.237735566904344   0.042303301675939   0.110696929716242   1.0000000
N2   N   0.234184430435243   0.181647306309942   0.110706350133484   1.0000000
N2   N   0.235620797954587   0.325815206674745   0.110810350880833   1.0000000
N2   N   0.242844148686605   0.477692856856418   0.110687305744762   1.0000000
N2   N   0.241536464242090   0.619747658980622   0.110834321335864   1.0000000
N2   N   0.240272478222098   0.760894166807501   0.110698227871296   1.0000000
N2   N   0.383553998118518   0.903833021249272   0.110759571518764   1.0000000
N2   N   0.382386340431574   0.043293211572346   0.110799175790877   1.0000000
N2   N   0.380293197687926   0.180966556520137   0.110649483123924   1.0000000
N2   N   0.373770927802921   0.312811084423080   0.111138004563934   1.0000000
N2   N   0.387421373090098   0.625566381873797   0.111020535626015   1.0000000
N2   N   0.385015849119801   0.764219785828627   0.110847365100982   1.0000000
N2   N   0.527699297968830   0.906425575599227   0.110754314415593   1.0000000
N2   N   0.526457400482491   0.047433060421320   0.110768742092629   1.0000000
N2   N   0.525141267229836   0.188205896662560   0.110747559929568   1.0000000
N2   N   0.522492755754335   0.328156965703841   0.110616060590639   1.0000000
N2   N   0.525188613471803   0.542973047495081   0.111054790782829   1.0000000
N2   N   0.541264085580617   0.631055192717595   0.110981539717510   1.0000000
N2   N   0.530123605516062   0.765504502858398   0.110855843350875   1.0000000
N2   N   0.671648713726680   0.910450088601640   0.110709539942777   1.0000000
N2   N   0.670053609558508   0.050936326622755   0.110702503820601   1.0000000
N2   N   0.668712249867598   0.192569095975103   0.110712033026885   1.0000000
N2   N   0.666223010013779   0.335277875689307   0.110706066592686   1.0000000
N2   N   0.657554150088685   0.479633244886009   0.110696462505027   1.0000000
N2   N   0.674897722474280   0.629603066136039   0.110629082123799   1.0000000
N2   N   0.676336389555496   0.773461981088753   0.110585532185379   1.0000000
N2   N   0.815023907895300   0.910440908039922   0.110608001665239   1.0000000
N2   N   0.813238157305785   0.051616840348777   0.110697040022608   1.0000000
N2   N   0.812215614117660   0.193502657154184   0.110750655367415   1.0000000
N2   N   0.810389682401822   0.335552083757008   0.110727399715529   1.0000000
N2   N   0.806415930727197   0.477693922948582   0.110682866799019   1.0000000
N2   N   0.810224394978351   0.620407179404934   0.110681858457766   1.0000000
N2   N   0.814693733163894   0.766748521152409   0.110568277053900   1.0000000


