data_1
_audit_creation_method   'vasp2cif'
_cell_length_a    17.52789999999977
_cell_length_b    17.52789999999977
_cell_length_c    15.0
_cell_angle_alpha    90.0
_cell_angle_beta    90.0
_cell_angle_gamma    119.99999999999916

_symmetry_space_group_name_H-M    'P 1'
loop_
_atom_site_label
_atom_site_type_symbol
_atom_site_fract_x
_atom_site_fract_y
_atom_site_fract_z
_atom_site_occupancy
B2   B   0.904117513512736   0.954561890336854   0.119972168984184   1.0000000
B2   B   0.904081373698581   0.097431248160774   0.121498991080350   1.0000000
B2   B   0.904003300961104   0.240183174956461   0.119801952094299   1.0000000
B2   B   0.903796316958189   0.382799125070203   0.116462131089316   1.0000000
B2   B   0.903371915375216   0.525372753177197   0.113138548598993   1.0000000
B2   B   0.903074756835001   0.668062008798479   0.111733959635605   1.0000000
B2   B   0.903481771170666   0.811109012375381   0.114828719459800   1.0000000
B2   B   0.046511358435729   0.953992556635882   0.118460558929310   1.0000000
B2   B   0.046694858988507   0.097066756388772   0.118469929695689   1.0000000
B2   B   0.046911457959898   0.240104407947393   0.116000777778600   1.0000000
B2   B   0.046978119460107   0.382760413388402   0.113758208734451   1.0000000
B2   B   0.046782629475028   0.525371845812378   0.113127911830365   1.0000000
B2   B   0.046424114281790   0.668065758147254   0.114080899436505   1.0000000
B2   B   0.046349849205934   0.810949873660703   0.116193558071542   1.0000000
B2   B   0.189345851967621   0.953894500218220   0.117684686575331   1.0000000
B2   B   0.189399597635321   0.096848109549004   0.114912858774742   1.0000000
B2   B   0.189183720804226   0.239448404767503   0.109098071468576   1.0000000
B2   B   0.190002333321842   0.382679779698482   0.104824427821544   1.0000000
B2   B   0.190182756698699   0.525242418533718   0.106824852645782   1.0000000
B2   B   0.189801231885155   0.668077315791461   0.111735170598093   1.0000000
B2   B   0.189401352741006   0.810949393026232   0.116209846517624   1.0000000
B2   B   0.332262674016215   0.953976798716294   0.118519033554446   1.0000000
B2   B   0.332255824281637   0.096841894944328   0.114921302452706   1.0000000
B2   B   0.332169351778144   0.239542697734722   0.104335106702006   1.0000000
B2   B   0.331905803696365   0.381731536866172   0.089095279546273   1.0000000
B2   B   0.334288340862627   0.524829538322852   0.088915564938059   1.0000000
B2   B   0.333129836835453   0.668202185763581   0.104096612790380   1.0000000
B2   B   0.332456548471682   0.811114879680799   0.114881323500217   1.0000000
B2   B   0.475251073242103   0.954565152684121   0.120076368165603   1.0000000
B2   B   0.475151870277614   0.097054178569554   0.118492860996334   1.0000000
B2   B   0.475045962812053   0.239424851602074   0.109001355953411   1.0000000
B2   B   0.474598387602834   0.381705830195021   0.089069351211021   1.0000000
B2   B   0.476895096667629   0.670958994885382   0.095318764061822   1.0000000
B2   B   0.475495054689993   0.812395825782756   0.113676061571096   1.0000000
B2   B   0.618263738560168   0.954775168244830   0.120909614046368   1.0000000
B2   B   0.618141898446681   0.097410341629851   0.121621020367323   1.0000000
B2   B   0.617960545605895   0.240088769643771   0.116006605435483   1.0000000
B2   B   0.617445405899601   0.382660442563537   0.104800228770877   1.0000000
B2   B   0.615392841044164   0.524851125832849   0.088930564448559   1.0000000
B2   B   0.618885695675252   0.670951177129487   0.095303799686491   1.0000000
B2   B   0.618567547387851   0.812333045995560   0.112814487536140   1.0000000
B2   B   0.761328246744882   0.954784897370023   0.120885808714349   1.0000000
B2   B   0.761157487202498   0.097486799769471   0.122653015777111   1.0000000
B2   B   0.760956913425750   0.240157587540812   0.119844925114481   1.0000000
B2   B   0.760581530013403   0.382748292028421   0.113769690521711   1.0000000
B2   B   0.759845550004128   0.525216502447986   0.106818285223998   1.0000000
B2   B   0.759906351562319   0.668199535622140   0.104081491441816   1.0000000
B2   B   0.761713459931568   0.812384004116263   0.113602963574882   1.0000000
N2   N   0.951341736799427   0.906472720493951   0.118538352695336   1.0000000
N2   N   0.951528812020041   0.049643329442735   0.121029261890670   1.0000000
N2   N   0.951493791042838   0.192506715760549   0.120000728870252   1.0000000
N2   N   0.951485328980696   0.335261855619414   0.117305295861636   1.0000000
N2   N   0.951372767381396   0.477963799376876   0.114519351956085   1.0000000
N2   N   0.951179333169292   0.620674320759093   0.113065522772644   1.0000000
N2   N   0.951205602984674   0.763490654047751   0.114245794815154   1.0000000
N2   N   0.094031891915020   0.906171052300310   0.117884815882166   1.0000000
N2   N   0.093997322241206   0.049039196523056   0.118054749934907   1.0000000
N2   N   0.093795390556326   0.191820560986441   0.115512367364027   1.0000000
N2   N   0.094190944597539   0.335040796302723   0.112211036891078   1.0000000
N2   N   0.094408145011030   0.477934070150414   0.111588762316606   1.0000000
N2   N   0.094292204547278   0.620682103489579   0.113046724360257   1.0000000
N2   N   0.094092515186654   0.763384852226024   0.115625812535904   1.0000000
N2   N   0.236930805800204   0.906166250189300   0.117911112759322   1.0000000
N2   N   0.236818509015164   0.048830668174619   0.116277912419379   1.0000000
N2   N   0.236474730811830   0.191284199212044   0.109682885633848   1.0000000
N2   N   0.235582993574475   0.333370951887315   0.101782548210496   1.0000000
N2   N   0.237159475704178   0.477889987096292   0.101394239610509   1.0000000
N2   N   0.237444063245487   0.620871281942033   0.107373237273200   1.0000000
N2   N   0.237102933474117   0.763504554046391   0.114271486523898   1.0000000
N2   N   0.379936199412054   0.906474887631665   0.118623108252773   1.0000000
N2   N   0.379830269241621   0.049024674821175   0.118095285455911   1.0000000
N2   N   0.379600886598665   0.191272842173080   0.109640693635255   1.0000000
N2   N   0.378764363191998   0.332735330996908   0.093343931418133   1.0000000
N2   N   0.371749646935536   0.471929556389846   0.074190209883884   1.0000000
N2   N   0.381125044940458   0.621979975012185   0.093661155701363   1.0000000
N2   N   0.380170819477742   0.763951683067352   0.110987096225431   1.0000000
N2   N   0.523073226796958   0.907555790611840   0.119539748324454   1.0000000
N2   N   0.522908398567584   0.049639666907965   0.121141877085774   1.0000000
N2   N   0.522802115834471   0.191802245349441   0.115454608425060   1.0000000
N2   N   0.522567319841769   0.333351864278225   0.101698200824169   1.0000000
N2   N   0.525015878047242   0.471929424962693   0.074228928872698   1.0000000
N2   N   0.526066941634969   0.627310125666528   0.086729637616315   1.0000000
N2   N   0.523346852202760   0.766122105770369   0.109225329456138   1.0000000
N2   N   0.666188747619657   0.907564952616146   0.119499181342069   1.0000000
N2   N   0.665945441451482   0.049984440083417   0.122815106307535   1.0000000
N2   N   0.665790310726370   0.192490734677614   0.120091059235329   1.0000000
N2   N   0.665632379139405   0.335027973795898   0.112208504009901   1.0000000
N2   N   0.665519442679186   0.477869958365399   0.101392515248930   1.0000000
N2   N   0.665685219383691   0.621982196587825   0.093656742606318   1.0000000
N2   N   0.667587354266456   0.766119519473989   0.109183489350886   1.0000000
N2   N   0.809287807141478   0.907549148670543   0.119455555899846   1.0000000
N2   N   0.808857956392729   0.049989112945702   0.122751369006737   1.0000000
N2   N   0.808709054751105   0.192618176656183   0.121644870011104   1.0000000
N2   N   0.808563962620033   0.335244812508412   0.117334981709786   1.0000000
N2   N   0.808311023528871   0.477917648906282   0.111594085221225   1.0000000
N2   N   0.808225600516314   0.620847429348916   0.107366276262821   1.0000000
N2   N   0.808601307814978   0.763947129374014   0.110936376835114   1.0000000


