data_1
_audit_creation_method   'vasp2cif'
_cell_length_a    17.52789999999977
_cell_length_b    17.52789999999977
_cell_length_c    15.0
_cell_angle_alpha    90.0
_cell_angle_beta    90.0
_cell_angle_gamma    119.99999999999916

_symmetry_space_group_name_H-M    'P 1'
loop_
_atom_site_label
_atom_site_type_symbol
_atom_site_fract_x
_atom_site_fract_y
_atom_site_fract_z
_atom_site_occupancy
B2   B   0.904786833946475   0.952236744376238   0.117050028187245   1.0000000
B2   B   0.904878973293111   0.095123012485497   0.118353943631897   1.0000000
B2   B   0.904907997522988   0.237967731403637   0.119420484563069   1.0000000
B2   B   0.904821414105755   0.380807589150936   0.119445112737552   1.0000000
B2   B   0.905006216838720   0.523736056365029   0.117370725870415   1.0000000
B2   B   0.904918006848865   0.666669989107777   0.113824744779090   1.0000000
B2   B   0.904956541012502   0.809585910867530   0.114925508604326   1.0000000
B2   B   0.047693906530241   0.952308624771073   0.117950797287756   1.0000000
B2   B   0.047765457515534   0.095215478406673   0.117058338713904   1.0000000
B2   B   0.047783269723691   0.238040482160054   0.117424402725048   1.0000000
B2   B   0.047712965161223   0.380852903818618   0.120101687040857   1.0000000
B2   B   0.047557506747986   0.523734851098452   0.121165306432255   1.0000000
B2   B   0.047608068608860   0.666634285076293   0.119856153881701   1.0000000
B2   B   0.047673658970071   0.809488405744525   0.118486758656338   1.0000000
B2   B   0.190510435408654   0.952325628962699   0.118463397294197   1.0000000
B2   B   0.190417938540657   0.095045971121906   0.114901491327403   1.0000000
B2   B   0.190654446284343   0.238248060103964   0.111197042591448   1.0000000
B2   B   0.190646920514452   0.381051456602631   0.114907711595315   1.0000000
B2   B   0.190151473541128   0.523843206730089   0.121148228492633   1.0000000
B2   B   0.190324640803913   0.666703629710569   0.122210864431970   1.0000000
B2   B   0.190466872173689   0.809532010699908   0.120749285373246   1.0000000
B2   B   0.333364413028538   0.952390884296783   0.119817961175669   1.0000000
B2   B   0.333330284006887   0.095082180317624   0.113778670915585   1.0000000
B2   B   0.332523675051436   0.237236623548207   0.102357329483743   1.0000000
B2   B   0.333147515276245   0.381601567580300   0.094808151450369   1.0000000
B2   B   0.332329948841163   0.524217577644241   0.111977345081552   1.0000000
B2   B   0.333076458480849   0.666923422869638   0.120844274560506   1.0000000
B2   B   0.333297516056256   0.809675873028479   0.122206574412766   1.0000000
B2   B   0.476266665803877   0.952444082774758   0.121126336219535   1.0000000
B2   B   0.476264469678058   0.094992195506301   0.117310654777033   1.0000000
B2   B   0.476192294054970   0.236935860118798   0.105125360799912   1.0000000
B2   B   0.470498432959501   0.367659494023484   0.062793870461345   1.0000000
B2   B   0.469282946918688   0.530722885434296   0.066120903826483   1.0000000
B2   B   0.475783333971150   0.667673685741865   0.111965383838245   1.0000000
B2   B   0.476157436678561   0.809849445370460   0.121118838588807   1.0000000
B2   B   0.619146131553729   0.952288324803339   0.120048499386962   1.0000000
B2   B   0.619194171019361   0.095182888504509   0.119403170655708   1.0000000
B2   B   0.619219777623976   0.237982387567708   0.113365565298847   1.0000000
B2   B   0.619546696868582   0.380455333563458   0.095497077686331   1.0000000
B2   B   0.632340305432424   0.529506137695439   0.062827946215683   1.0000000
B2   B   0.618397695446050   0.666856557045852   0.094805706165605   1.0000000
B2   B   0.618949192930776   0.809357682394603   0.114865270300882   1.0000000
B2   B   0.761961377751206   0.952218905320763   0.117377159727887   1.0000000
B2   B   0.762031619160180   0.095092268053751   0.119387171255053   1.0000000
B2   B   0.762049094902707   0.237953991262263   0.118300587780271   1.0000000
B2   B   0.762018984111680   0.380780199293867   0.113397891656011   1.0000000
B2   B   0.763064744929942   0.523809200326028   0.105161969616211   1.0000000
B2   B   0.762765614018217   0.667480077471499   0.102375862707348   1.0000000
B2   B   0.761753784479646   0.809348278858101   0.111181561550836   1.0000000
In2   In   0.521593796236318   0.478434675206751   0.950136377503608   1.0000000
N2   N   0.952468434924402   0.904708544244444   0.117229019371620   1.0000000
N2   N   0.952492333400996   0.047508328436511   0.117941961088150   1.0000000
N2   N   0.952543286584438   0.190366491453637   0.118700769753008   1.0000000
N2   N   0.952451962924187   0.333188983266571   0.120113506443306   1.0000000
N2   N   0.952387229923024   0.476039573684384   0.119936204866505   1.0000000
N2   N   0.952379657646585   0.618970099972617   0.117493076083956   1.0000000
N2   N   0.952448209737238   0.761870655125744   0.116033814089527   1.0000000
N2   N   0.095286138107461   0.904713495817813   0.118737301883469   1.0000000
N2   N   0.095293943114101   0.047533411237425   0.117219718876914   1.0000000
N2   N   0.095505578727245   0.190541163190265   0.115714308602488   1.0000000
N2   N   0.095431824930339   0.333261073075513   0.118119772683466   1.0000000
N2   N   0.095033890974368   0.476066108187264   0.121437561579158   1.0000000
N2   N   0.095101163871358   0.618979724706827   0.121518257408929   1.0000000
N2   N   0.095227867395568   0.761873110942565   0.119917456341047   1.0000000
N2   N   0.238126232996279   0.904770658710867   0.119894416359349   1.0000000
N2   N   0.238130333788405   0.047550467998662   0.115990086589861   1.0000000
N2   N   0.237902266754108   0.190239736630885   0.110452468010127   1.0000000
N2   N   0.238652163732143   0.333684396076751   0.108043111486807   1.0000000
N2   N   0.237537803644838   0.476180220866782   0.118106819619309   1.0000000
N2   N   0.237826273032870   0.619098029337652   0.122294364352625   1.0000000
N2   N   0.238034899045977   0.761965980267418   0.122024761212448   1.0000000
N2   N   0.381020997576735   0.904898392042627   0.121496594117006   1.0000000
N2   N   0.381030316146305   0.047616712896414   0.117433926328937   1.0000000
N2   N   0.380834695392069   0.190150964565036   0.106705207191874   1.0000000
N2   N   0.379423827128479   0.331869040716637   0.086810094605717   1.0000000
N2   N   0.379233504074651   0.477427322814754   0.095318503648119   1.0000000
N2   N   0.380498301040099   0.619503778260987   0.116100235435549   1.0000000
N2   N   0.380903511575121   0.762174717505486   0.122288876415649   1.0000000
N2   N   0.523934660844278   0.904967450127862   0.121397267480400   1.0000000
N2   N   0.523963114183923   0.047613252233583   0.119882207584743   1.0000000
N2   N   0.523973869606732   0.190132026620087   0.113454346025484   1.0000000
N2   N   0.524016697272028   0.331496970033146   0.090862547982023   1.0000000
N2   N   0.522575160277548   0.620771854062158   0.095314074718220   1.0000000
N2   N   0.523821515376106   0.762466616793132   0.118073650763166   1.0000000
N2   N   0.666740959812033   0.904572718099560   0.118061722848657   1.0000000
N2   N   0.666810494352780   0.047549504921975   0.120064466107076   1.0000000
N2   N   0.666810853847191   0.190460769627764   0.117711250691970   1.0000000
N2   N   0.666710946158306   0.333291688800599   0.108651660891395   1.0000000
N2   N   0.668505604673776   0.475986818422190   0.090878426731030   1.0000000
N2   N   0.668134724318176   0.620581173705019   0.086821357178626   1.0000000
N2   N   0.666318219262878   0.761353383754952   0.108018581475688   1.0000000
N2   N   0.809460875100799   0.904496964791768   0.115685851473242   1.0000000
N2   N   0.809633771199608   0.047457224539473   0.118663539766641   1.0000000
N2   N   0.809655364973565   0.190343484501948   0.119395725245208   1.0000000
N2   N   0.809543151748216   0.333192104527625   0.117739662649582   1.0000000
N2   N   0.809865371932080   0.476026641488266   0.113511187618604   1.0000000
N2   N   0.809847692365274   0.619166211790965   0.106742511905972   1.0000000
N2   N   0.809762249434343   0.762101111032961   0.110462279101912   1.0000000


