data_1
_audit_creation_method   'vasp2cif'
_cell_length_a    14.93631414619966
_cell_length_b    14.936314146199727
_cell_length_c    13.341276283792837
_cell_angle_alpha    90.0
_cell_angle_beta    90.0
_cell_angle_gamma    119.99999999999984

_symmetry_space_group_name_H-M    'P 1'
loop_
_atom_site_label
_atom_site_type_symbol
_atom_site_fract_x
_atom_site_fract_y
_atom_site_fract_z
_atom_site_occupancy
Se2   Se   0.486948200241938   0.410140766787633   0.375000000000000   1.0000000
N2   N   0.111118622928940   0.055529706622108   0.125220355180560   1.0000000
N2   N   0.611095681860711   0.555562814221998   0.126465103754645   1.0000000
N2   N   0.444427868040481   0.055530580208125   0.125312310475632   1.0000000
N2   N   0.944445591461407   0.555569028530342   0.125278049676349   1.0000000
N2   N   0.777793841915091   0.055563587624213   0.125096792421697   1.0000000
N2   N   0.111113537229831   0.722223435281579   0.624831905502859   1.0000000
N2   N   0.444427868040481   0.722230621165691   0.624687689524367   1.0000000
N2   N   0.277781182304275   0.222202478847339   0.624505524769533   1.0000000
N2   N   0.777773679056078   0.722204372917489   0.624454789395117   1.0000000
N2   N   0.611094049779892   0.222207399717048   0.624536846008020   1.0000000
N2   N   0.944472632434578   0.222250712309839   0.624837669064890   1.0000000
N2   N   0.277768622566811   0.722229147885813   0.125191962628515   1.0000000
N2   N   0.111156399200600   0.222244866266964   0.125278553344747   1.0000000
N2   N   0.444430416742030   0.222207651875400   0.125887656684276   1.0000000
N2   N   0.611094049779892   0.722219983396173   0.125463153991981   1.0000000
N2   N   0.944445591461407   0.722209896264398   0.125278049676349   1.0000000
N2   N   0.777781502618846   0.222237904868780   0.125165416745584   1.0000000
N2   N   0.111109476262498   0.888862123220229   0.624802195104781   1.0000000
N2   N   0.444430587195485   0.888881960264406   0.624858418277860   1.0000000
N2   N   0.277781182304275   0.388912036790265   0.624505524769533   1.0000000
N2   N   0.611095681860711   0.388866200972041   0.623534896245354   1.0000000
N2   N   0.777781502618846   0.888876931083394   0.624834583254416   1.0000000
N2   N   0.944454284642132   0.388918116579781   0.624810740385524   1.0000000
N2   N   0.111118622928940   0.388922249640161   0.125220355180560   1.0000000
N2   N   0.277768622566811   0.888872808014327   0.125191962628515   1.0000000
N2   N   0.611103834050636   0.888887340176776   0.125115685619016   1.0000000
N2   N   0.444409610368241   0.388871471850785   0.126486916196299   1.0000000
N2   N   0.944454284642132   0.888869501395679   0.125189259614475   1.0000000
N2   N   0.777773679056078   0.388902639471918   0.125545210604883   1.0000000
N2   N   0.277772101596511   0.555577302241591   0.624626079934396   1.0000000
N2   N   0.111118622928940   0.055529706622108   0.624779644819439   1.0000000
N2   N   0.611095681860711   0.555562814221998   0.623534896245354   1.0000000
N2   N   0.444427868040481   0.055530580208125   0.624687689524367   1.0000000
N2   N   0.944445591461407   0.555569028530342   0.624721950323651   1.0000000
N2   N   0.111109476262498   0.555580686375598   0.125197804895221   1.0000000
N2   N   0.777793841915091   0.055563587624213   0.624903207578302   1.0000000
N2   N   0.277772101596511   0.055528132688256   0.125373920065604   1.0000000
N2   N   0.444430416742030   0.555556098199967   0.125887656684276   1.0000000
N2   N   0.777761977069993   0.555547655201664   0.125805000234240   1.0000000
N2   N   0.611103834050636   0.055549827207189   0.125115685619016   1.0000000
N2   N   0.444430416742030   0.555556098199967   0.624112343315724   1.0000000
N2   N   0.944472632434578   0.055555253458075   0.125162330935110   1.0000000
N2   N   0.277768622566811   0.722229147885813   0.624808037371486   1.0000000
N2   N   0.111156399200600   0.222244866266964   0.624721446655254   1.0000000
N2   N   0.444430416742030   0.222207651875400   0.624112343315724   1.0000000
N2   N   0.611094049779892   0.722219983396173   0.624536846008020   1.0000000
N2   N   0.944445591461407   0.722209896264398   0.624721950323651   1.0000000
N2   N   0.777781502618846   0.222237904868780   0.624834583254416   1.0000000
N2   N   0.111113537229831   0.722223435281579   0.125168094497142   1.0000000
N2   N   0.444427868040481   0.722230621165691   0.125312310475632   1.0000000
N2   N   0.277781182304275   0.222202478847339   0.125494475230467   1.0000000
N2   N   0.777773679056078   0.722204372917489   0.125545210604883   1.0000000
N2   N   0.611094049779892   0.222207399717048   0.125463153991981   1.0000000
N2   N   0.944472632434578   0.222250712309839   0.125162330935110   1.0000000
N2   N   0.111118622928940   0.388922249640161   0.624779644819439   1.0000000
N2   N   0.277768622566811   0.888872808014327   0.624808037371486   1.0000000
N2   N   0.611103834050636   0.888887340176776   0.624884314380984   1.0000000
N2   N   0.444409610368241   0.388871471850785   0.623513083803701   1.0000000
N2   N   0.944454284642132   0.888869501395679   0.624810740385524   1.0000000
N2   N   0.111109476262498   0.888862123220229   0.125197804895221   1.0000000
N2   N   0.777773679056078   0.388902639471918   0.624454789395117   1.0000000
N2   N   0.444430587195485   0.888881960264406   0.125141581722139   1.0000000
N2   N   0.277781182304275   0.388912036790265   0.125494475230467   1.0000000
N2   N   0.277772101596511   0.555577302241591   0.125373920065604   1.0000000
N2   N   0.611095681860711   0.388866200972041   0.126465103754645   1.0000000
N2   N   0.777781502618846   0.888876931083394   0.125165416745584   1.0000000
N2   N   0.944454284642132   0.388918116579781   0.125189259614475   1.0000000
N2   N   0.111109476262498   0.555580686375598   0.624802195104781   1.0000000
N2   N   0.277772101596511   0.055528132688256   0.624626079934396   1.0000000
N2   N   0.777761977069993   0.555547655201664   0.624194999765759   1.0000000
N2   N   0.611103834050636   0.055549827207189   0.624884314380984   1.0000000
N2   N   0.944472632434578   0.055555253458075   0.624837669064890   1.0000000
N2   N   0.057008970254392   0.112064657738810   0.375000000000000   1.0000000
N2   N   0.553782388455253   0.618171698305836   0.375000000000000   1.0000000
N2   N   0.386939384003300   0.106257862484487   0.375000000000000   1.0000000
N2   N   0.884690169918049   0.609011751625696   0.375000000000000   1.0000000
N2   N   0.722669460524026   0.110559421185488   0.375000000000000   1.0000000
N2   N   0.055556921857886   0.777782137535883   0.875000000000000   1.0000000
N2   N   0.388906527253306   0.777784257292040   0.875000000000000   1.0000000
N2   N   0.222226001249268   0.277779667291302   0.875000000000000   1.0000000
N2   N   0.722232973349237   0.777787711289818   0.875000000000000   1.0000000
N2   N   0.555565993076441   0.277786141030515   0.875000000000000   1.0000000
N2   N   0.888898769059086   0.277779240075512   0.875000000000000   1.0000000
N2   N   0.219530543172267   0.776431938252801   0.375000000000000   1.0000000
N2   N   0.057008970254392   0.278277645848918   0.375000000000000   1.0000000
N2   N   0.391811816616415   0.273604934310902   0.375000000000000   1.0000000
N2   N   0.554660990824549   0.780794202984972   0.375000000000000   1.0000000
N2   N   0.887099663769939   0.777309044919485   0.375000000000000   1.0000000
N2   N   0.722115881728533   0.275760048955147   0.375000000000000   1.0000000
N2   N   0.055560931944569   0.944452573272418   0.875000000000000   1.0000000
N2   N   0.388906527253306   0.944455603294603   0.875000000000000   1.0000000
N2   N   0.222228032088365   0.444442787838166   0.875000000000000   1.0000000
N2   N   0.555562170686938   0.444447752010133   0.875000000000000   1.0000000
N2   N   0.722235092178585   0.944453617946051   0.875000000000000   1.0000000
N2   N   0.888894299555278   0.444441214541034   0.875000000000000   1.0000000
N2   N   0.055060464925165   0.443979238639845   0.375000000000000   1.0000000
N2   N   0.220004473878111   0.942586645194949   0.375000000000000   1.0000000
N2   N   0.554758057544244   0.944045695438787   0.375000000000000   1.0000000
N2   N   0.391811816616415   0.451540215638849   0.375000000000000   1.0000000
N2   N   0.889471507392599   0.945402376742124   0.375000000000000   1.0000000
N2   N   0.718265866938812   0.441986791167378   0.375000000000000   1.0000000
N2   N   0.222232309495409   0.611109471588143   0.875000000000000   1.0000000
N2   N   0.055560432317019   0.111115891282242   0.875000000000000   1.0000000
N2   N   0.555565993076441   0.611113185379261   0.875000000000000   1.0000000
N2   N   0.388904408931843   0.111125690314327   0.875000000000000   1.0000000
N2   N   0.888888359960915   0.611110846647129   0.875000000000000   1.0000000
N2   N   0.052614038864003   0.609771302592703   0.375000000000000   1.0000000
N2   N   0.722235092178585   0.111114807565869   0.875000000000000   1.0000000
N2   N   0.223394989661243   0.111568267660634   0.375000000000000   1.0000000
N2   N   0.386939384003300   0.614014854852156   0.375000000000000   1.0000000
N2   N   0.718265866938812   0.609612409104768   0.375000000000000   1.0000000
N2   N   0.554660990824549   0.107200121172914   0.375000000000000   1.0000000
N2   N   0.388904408931843   0.611112051950859   0.875000000000000   1.0000000
N2   N   0.890047994697230   0.111690664015286   0.375000000000000   1.0000000
N2   N   0.222232416473646   0.777782874903490   0.875000000000000   1.0000000
N2   N   0.055560432317019   0.277777874368112   0.875000000000000   1.0000000
N2   N   0.388897625189547   0.277785179258551   0.875000000000000   1.0000000
N2   N   0.555570272030369   0.777785673169501   0.875000000000000   1.0000000
N2   N   0.888894299555278   0.777786418347580   0.875000000000000   1.0000000
N2   N   0.722232973349237   0.277778595392754   0.875000000000000   1.0000000
N2   N   0.052614038864003   0.776176069604634   0.375000000000000   1.0000000
N2   N   0.386901424665637   0.778021403219271   0.375000000000000   1.0000000
N2   N   0.225077860012567   0.279205596672952   0.375000000000000   1.0000000
N2   N   0.722115881728533   0.779689166106722   0.375000000000000   1.0000000
N2   N   0.553782388455253   0.268944023482752   0.375000000000000   1.0000000
N2   N   0.889471507392599   0.277402463983810   0.375000000000000   1.0000000
N2   N   0.055560931944569   0.444441692005480   0.875000000000000   1.0000000
N2   N   0.222232309495409   0.944456171240602   0.875000000000000   1.0000000
N2   N   0.555570852732693   0.944452093033010   0.875000000000000   1.0000000
N2   N   0.388897625189547   0.444445779264333   0.875000000000000   1.0000000
N2   N   0.888898769059086   0.944452862316911   0.875000000000000   1.0000000
N2   N   0.055060464925165   0.944414559618648   0.375000000000000   1.0000000
N2   N   0.722227076529578   0.444444253228011   0.875000000000000   1.0000000
N2   N   0.386901424665637   0.942213354779703   0.375000000000000   1.0000000
N2   N   0.223394989661243   0.445160055333944   0.375000000000000   1.0000000
N2   N   0.220004473878111   0.610751162016498   0.375000000000000   1.0000000
N2   N   0.722669460524026   0.945443372671874   0.375000000000000   1.0000000
N2   N   0.887099663769939   0.443123952183789   0.375000000000000   1.0000000
N2   N   0.055556921857886   0.611108117655338   0.875000000000000   1.0000000
N2   N   0.222228032088365   0.111118577583535   0.875000000000000   1.0000000
N2   N   0.722227076529578   0.611116156634902   0.875000000000000   1.0000000
N2   N   0.555570272030369   0.111117932194204   0.875000000000000   1.0000000
N2   N   0.888901175548778   0.111117254441060   0.875000000000000   1.0000000
B2   B   0.111287384492919   0.055612871163304   0.375000000000000   1.0000000
B2   B   0.613084133739307   0.572554864618795   0.375000000000000   1.0000000
B2   B   0.443452951245280   0.051606355126877   0.375000000000000   1.0000000
B2   B   0.941954656719682   0.554210120352990   0.375000000000000   1.0000000
B2   B   0.779014033766674   0.056173683550005   0.375000000000000   1.0000000
B2   B   0.111129533800987   0.722231433567158   0.875000000000000   1.0000000
B2   B   0.444457059978963   0.722273558977903   0.875000000000000   1.0000000
B2   B   0.277701940502775   0.222164959093666   0.875000000000000   1.0000000
B2   B   0.777841464286636   0.722308777228487   0.875000000000000   1.0000000
B2   B   0.611155775246981   0.222171788665891   0.875000000000000   1.0000000
B2   B   0.944434627698197   0.222207278441156   0.875000000000000   1.0000000
B2   B   0.275567346586970   0.721832798836164   0.375000000000000   1.0000000
B2   B   0.112129900653516   0.222731616993422   0.375000000000000   1.0000000
B2   B   0.443071318469194   0.213856953407969   0.375000000000000   1.0000000
B2   B   0.612211357495054   0.729774108650389   0.375000000000000   1.0000000
B2   B   0.941954656719682   0.721077869700027   0.375000000000000   1.0000000
B2   B   0.778909385568708   0.220985972648557   0.375000000000000   1.0000000
B2   B   0.111110702617363   0.888889521016036   0.875000000000000   1.0000000
B2   B   0.444461374422991   0.888897353878159   0.875000000000000   1.0000000
B2   B   0.277701940502775   0.388870314742436   0.875000000000000   1.0000000
B2   B   0.611168420670248   0.388861681567942   0.875000000000000   1.0000000
B2   B   0.777817344004618   0.888955015221672   0.875000000000000   1.0000000
B2   B   0.944462700371035   0.388869765783516   0.875000000000000   1.0000000
B2   B   0.111287384492919   0.389007846662944   0.375000000000000   1.0000000
B2   B   0.275567346586970   0.887067881084135   0.375000000000000   1.0000000
B2   B   0.611679741515347   0.891198022257187   0.375000000000000   1.0000000
B2   B   0.944069097773295   0.889349555753807   0.375000000000000   1.0000000
B2   B   0.777271508977356   0.386183401089721   0.375000000000000   1.0000000
B2   B   0.277747207507781   0.555567986947175   0.875000000000000   1.0000000
B2   B   0.111071861785269   0.055532848944224   0.875000000000000   1.0000000
B2   B   0.611168420670248   0.555640072435635   0.875000000000000   1.0000000
B2   B   0.444457059978963   0.055516834334396   0.875000000000000   1.0000000
B2   B   0.944487868069141   0.555560657629787   0.875000000000000   1.0000000
B2   B   0.108910591398955   0.554870668625774   0.375000000000000   1.0000000
B2   B   0.777800762600972   0.055567047967154   0.875000000000000   1.0000000
B2   B   0.275656538801744   0.052641173088507   0.375000000000000   1.0000000
B2   B   0.443071318469194   0.562547698394561   0.375000000000000   1.0000000
B2   B   0.774896434147596   0.554114883740466   0.375000000000000   1.0000000
B2   B   0.611679741515347   0.053815052591489   0.375000000000000   1.0000000
B2   B   0.444431249252023   0.555601290478499   0.875000000000000   1.0000000
B2   B   0.945569965897006   0.056497753026275   0.375000000000000   1.0000000
B2   B   0.277782222720157   0.722236256987145   0.875000000000000   1.0000000
B2   B   0.111044683856684   0.222189008595006   0.875000000000000   1.0000000
B2   B   0.444431249252023   0.222163292106860   0.875000000000000   1.0000000
B2   B   0.611155775246981   0.722317319914419   0.875000000000000   1.0000000
B2   B   0.944487868069141   0.722260543772688   0.875000000000000   1.0000000
B2   B   0.777817344004618   0.222195662116273   0.875000000000000   1.0000000
B2   B   0.108409413832265   0.720871373582796   0.375000000000000   1.0000000
B2   B   0.443452951245280   0.725179929451739   0.375000000000000   1.0000000
B2   B   0.278089280934847   0.222123592700475   0.375000000000000   1.0000000
B2   B   0.777271508977356   0.724421441220965   0.375000000000000   1.0000000
B2   B   0.612211357495054   0.215770582177994   0.375000000000000   1.0000000
B2   B   0.945569965897006   0.222405546204066   0.375000000000000   1.0000000
B2   B   0.111071861785269   0.388872346174373   0.875000000000000   1.0000000
B2   B   0.277782222720157   0.888879299066340   0.875000000000000   1.0000000
B2   B   0.611149056607287   0.888938134801496   0.875000000000000   1.0000000
B2   B   0.444391278299116   0.388862305816222   0.875000000000000   1.0000000
B2   B   0.944462700371035   0.888926267920846   0.875000000000000   1.0000000
B2   B   0.108910591398955   0.887373256106511   0.375000000000000   1.0000000
B2   B   0.777841464286636   0.388866020391476   0.875000000000000   1.0000000
B2   B   0.443449487696539   0.888391410514933   0.375000000000000   1.0000000
B2   B   0.278089280934847   0.389299021567700   0.375000000000000   1.0000000
B2   B   0.275656538801744   0.556348699046573   0.375000000000000   1.0000000
B2   B   0.613084133739307   0.373862602453841   0.375000000000000   1.0000000
B2   B   0.778909385568708   0.891256746253478   0.375000000000000   1.0000000
B2   B   0.944069097773295   0.388052875352816   0.375000000000000   1.0000000
B2   B   0.111110702617363   0.555554514934655   0.875000000000000   1.0000000
B2   B   0.277747207507781   0.055512553893941   0.875000000000000   1.0000000
B2   B   0.777850442927357   0.555591888130345   0.875000000000000   1.0000000
B2   B   0.611149056607287   0.055544255139119   0.875000000000000   1.0000000
B2   B   0.944434627698197   0.055560682590377   0.875000000000000   1.0000000
B2   B   0.055489649282417   0.111027127403590   0.124764508608154   1.0000000
B2   B   0.555565106564910   0.611365370514207   0.124880494069303   1.0000000
B2   B   0.388737379177452   0.110778396250231   0.124827899409749   1.0000000
B2   B   0.889141581583287   0.611237457458315   0.124826898557321   1.0000000
B2   B   0.722244461689426   0.111071406921835   0.124696688914072   1.0000000
B2   B   0.055641580020130   0.777789627188516   0.625214426854239   1.0000000
B2   B   0.388804548414757   0.777835854588344   0.625237178338252   1.0000000
B2   B   0.222031873695684   0.277682603514511   0.625318655730021   1.0000000
B2   B   0.722329103907718   0.777959663531658   0.625254743701316   1.0000000
B2   B   0.555565106564910   0.277533069384038   0.625119505930697   1.0000000
B2   B   0.888942474083116   0.277792475068885   0.625252430797911   1.0000000
B2   B   0.222193277667396   0.777763305500366   0.124783343000255   1.0000000
B2   B   0.055489649282417   0.277795855212163   0.124764508608154   1.0000000
B2   B   0.388624920479108   0.277431698791782   0.124817845741424   1.0000000
B2   B   0.555521294282276   0.777934923476518   0.124715097276155   1.0000000
B2   B   0.889065316292271   0.777888392476918   0.124790436204223   1.0000000
B2   B   0.722329103907718   0.277702773709395   0.124745256298684   1.0000000
B2   B   0.055554764404854   0.944377829932744   0.625223200877653   1.0000000
B2   B   0.388804548414757   0.944302027159748   0.625237178338252   1.0000000
B2   B   0.222053073991625   0.444514478141163   0.625224386751646   1.0000000
B2   B   0.555693900855428   0.444513617094378   0.625030381660979   1.0000000
B2   B   0.722244461689426   0.944506388100927   0.625303311085928   1.0000000
B2   B   0.889065316292271   0.444510257148689   0.625209563795777   1.0000000
B2   B   0.055554764404854   0.444510267805439   0.124776799122348   1.0000000
B2   B   0.222144806072928   0.944270044577167   0.124808361036663   1.0000000
B2   B   0.555515120571349   0.944424226952339   0.124689525316220   1.0000000
B2   B   0.388624920479108   0.444526555020662   0.124817845741424   1.0000000
B2   B   0.888942474083116   0.944483332347567   0.124747569202088   1.0000000
B2   B   0.722502269393321   0.444509360093935   0.124986250705954   1.0000000
B2   B   0.222144806072928   0.611208094829097   0.625191638963336   1.0000000
B2   B   0.055489649282417   0.111027127403590   0.625235491391846   1.0000000
B2   B   0.555565106564910   0.611365370514207   0.625119505930697   1.0000000
B2   B   0.388737379177452   0.110778396250231   0.625172100590250   1.0000000
B2   B   0.889141581583287   0.611237457458315   0.625173101442679   1.0000000
B2   B   0.055641580020130   0.611185286164949   0.124785573145760   1.0000000
B2   B   0.722244461689426   0.111071406921835   0.625303311085928   1.0000000
B2   B   0.222053073991625   0.110871929183798   0.124775613248354   1.0000000
B2   B   0.388737379177452   0.611292316260564   0.124827899409749   1.0000000
B2   B   0.722502269393321   0.611326242632721   0.124986250705954   1.0000000
B2   B   0.555521294282276   0.110919704139094   0.124715097276155   1.0000000
B2   B   0.388737379177452   0.611292316260564   0.625172100590250   1.0000000
B2   B   0.888896603651327   0.111114968492335   0.124753410223339   1.0000000
B2   B   0.222193277667396   0.777763305500366   0.625216656999745   1.0000000
B2   B   0.055489649282417   0.277795855212163   0.625235491391846   1.0000000
B2   B   0.388624920479108   0.277431698791782   0.625182154258574   1.0000000
B2   B   0.555521294282276   0.777934923476518   0.625284902723844   1.0000000
B2   B   0.889065316292271   0.777888392476918   0.625209563795777   1.0000000
B2   B   0.722329103907718   0.277702773709395   0.625254743701316   1.0000000
B2   B   0.055641580020130   0.777789627188516   0.124785573145760   1.0000000
B2   B   0.388804548414757   0.777835854588344   0.124762821661746   1.0000000
B2   B   0.222031873695684   0.277682603514511   0.124681344269979   1.0000000
B2   B   0.722329103907718   0.777959663531658   0.124745256298684   1.0000000
B2   B   0.555565106564910   0.277533069384038   0.124880494069303   1.0000000
B2   B   0.888942474083116   0.277792475068885   0.124747569202088   1.0000000
B2   B   0.055554764404854   0.444510267805439   0.625223200877653   1.0000000
B2   B   0.222144806072928   0.944270044577167   0.625191638963336   1.0000000
B2   B   0.555515120571349   0.944424226952339   0.625310474683779   1.0000000
B2   B   0.388624920479108   0.444526555020662   0.625182154258574   1.0000000
B2   B   0.888942474083116   0.944483332347567   0.625252430797911   1.0000000
B2   B   0.055554764404854   0.944377829932744   0.124776799122348   1.0000000
B2   B   0.722502269393321   0.444509360093935   0.625013749294046   1.0000000
B2   B   0.388804548414757   0.944302027159748   0.124762821661746   1.0000000
B2   B   0.222053073991625   0.444514478141163   0.124775613248354   1.0000000
B2   B   0.222144806072928   0.611208094829097   0.124808361036663   1.0000000
B2   B   0.555693900855428   0.444513617094378   0.124969618339021   1.0000000
B2   B   0.722244461689426   0.944506388100927   0.124696688914072   1.0000000
B2   B   0.889065316292271   0.444510257148689   0.124790436204223   1.0000000
B2   B   0.055641580020130   0.611185286164949   0.625214426854239   1.0000000
B2   B   0.222053073991625   0.110871929183798   0.625224386751646   1.0000000
B2   B   0.722502269393321   0.611326242632721   0.625013749294046   1.0000000
B2   B   0.555521294282276   0.110919704139094   0.625284902723844   1.0000000
B2   B   0.888896603651327   0.111114968492335   0.625246589776662   1.0000000


