data_1
_audit_creation_method   'vasp2cif'
_cell_length_a    14.93631414619966
_cell_length_b    14.936314146199727
_cell_length_c    13.341276283792837
_cell_angle_alpha    90.0
_cell_angle_beta    90.0
_cell_angle_gamma    119.99999999999984

_symmetry_space_group_name_H-M    'P 1'
loop_
_atom_site_label
_atom_site_type_symbol
_atom_site_fract_x
_atom_site_fract_y
_atom_site_fract_z
_atom_site_occupancy
Se2   Se   0.444444444444443   0.388888888888886   0.375000000000000   1.0000000
N2   N   0.111110598544513   0.055548460535179   0.125261558587815   1.0000000
N2   N   0.611098830398718   0.555548592567239   0.125067358179766   1.0000000
N2   N   0.444437861990667   0.055548460535179   0.125261558587815   1.0000000
N2   N   0.944451533160010   0.555562240211532   0.125133785786644   1.0000000
N2   N   0.777777777777779   0.055555555555557   0.125065084747844   1.0000000
N2   N   0.111111111111114   0.722222222222221   0.624903890019621   1.0000000
N2   N   0.444437861990667   0.722222734788821   0.624738441412186   1.0000000
N2   N   0.277784740766097   0.222234502934616   0.624932641820232   1.0000000
N2   N   0.777784872798157   0.722222734788821   0.624738441412186   1.0000000
N2   N   0.611112359260971   0.222220974072363   0.624741813498915   1.0000000
N2   N   0.944445081958029   0.222227690728380   0.624910295828829   1.0000000
N2   N   0.277771093121804   0.722222626281814   0.125133785786644   1.0000000
N2   N   0.111108614811397   0.222220974072363   0.125258186501085   1.0000000
N2   N   0.444449762168519   0.222234502934616   0.125067358179766   1.0000000
N2   N   0.611112359260971   0.722224718521939   0.125258186501085   1.0000000
N2   N   0.944451533160010   0.722222626281814   0.125133785786644   1.0000000
N2   N   0.777782608770351   0.222227690728380   0.125089704171172   1.0000000
N2   N   0.111110707051523   0.888881800173318   0.624866214213354   1.0000000
N2   N   0.444435183312768   0.888884258323051   0.624908081396774   1.0000000
N2   N   0.277784740766097   0.388883571164810   0.624932641820232   1.0000000
N2   N   0.611098830398718   0.388883571164810   0.624932641820232   1.0000000
N2   N   0.777782608770351   0.888888251375299   0.624910295828829   1.0000000
N2   N   0.944449075010278   0.388898150020560   0.624908081396774   1.0000000
N2   N   0.111110598544513   0.388895471342662   0.125261558587815   1.0000000
N2   N   0.277771093121804   0.888881800173318   0.125133785786644   1.0000000
N2   N   0.611105642604958   0.888888251375299   0.125089704171172   1.0000000
N2   N   0.444444444444443   0.388888888888886   0.122260859005640   1.0000000
N2   N   0.944449075010278   0.888884258323051   0.125091918603226   1.0000000
N2   N   0.777784872798157   0.388895471342662   0.125261558587815   1.0000000
N2   N   0.277775770358532   0.555557562974803   0.624677884326093   1.0000000
N2   N   0.111110598544513   0.055548460535179   0.624738441412186   1.0000000
N2   N   0.611098830398718   0.555548592567239   0.624932641820232   1.0000000
N2   N   0.444437861990667   0.055548460535179   0.624738441412186   1.0000000
N2   N   0.944451533160010   0.555562240211532   0.624866214213354   1.0000000
N2   N   0.111110707051523   0.555562240211532   0.125133785786644   1.0000000
N2   N   0.777777777777779   0.055555555555557   0.624934915252156   1.0000000
N2   N   0.277775770358532   0.055551540717062   0.125322115673907   1.0000000
N2   N   0.444449762168519   0.555548592567239   0.125067358179766   1.0000000
N2   N   0.777781792616272   0.555557562974803   0.125322115673907   1.0000000
N2   N   0.611105642604958   0.055550724562987   0.125089704171172   1.0000000
N2   N   0.444449762168519   0.555548592567239   0.624932641820232   1.0000000
N2   N   0.944445081958029   0.055550724562987   0.125089704171172   1.0000000
N2   N   0.277771093121804   0.722222626281814   0.624866214213354   1.0000000
N2   N   0.111108614811397   0.222220974072363   0.624741813498915   1.0000000
N2   N   0.444449762168519   0.222234502934616   0.624932641820232   1.0000000
N2   N   0.611112359260971   0.722224718521939   0.624741813498915   1.0000000
N2   N   0.944451533160010   0.722222626281814   0.624866214213354   1.0000000
N2   N   0.777782608770351   0.222227690728380   0.624910295828829   1.0000000
N2   N   0.111111111111114   0.722222222222221   0.125096109980378   1.0000000
N2   N   0.444437861990667   0.722222734788821   0.125261558587815   1.0000000
N2   N   0.277784740766097   0.222234502934616   0.125067358179766   1.0000000
N2   N   0.777784872798157   0.722222734788821   0.125261558587815   1.0000000
N2   N   0.611112359260971   0.222220974072363   0.125258186501085   1.0000000
N2   N   0.944445081958029   0.222227690728380   0.125089704171172   1.0000000
N2   N   0.111110598544513   0.388895471342662   0.624738441412186   1.0000000
N2   N   0.277771093121804   0.888881800173318   0.624866214213354   1.0000000
N2   N   0.611105642604958   0.888888251375299   0.624910295828829   1.0000000
N2   N   0.444444444444443   0.388888888888886   0.627739140994358   1.0000000
N2   N   0.944449075010278   0.888884258323051   0.624908081396774   1.0000000
N2   N   0.111110707051523   0.888881800173318   0.125133785786644   1.0000000
N2   N   0.777784872798157   0.388895471342662   0.624738441412186   1.0000000
N2   N   0.444435183312768   0.888884258323051   0.125091918603226   1.0000000
N2   N   0.277784740766097   0.388883571164810   0.125067358179766   1.0000000
N2   N   0.277775770358532   0.555557562974803   0.125322115673907   1.0000000
N2   N   0.611098830398718   0.388883571164810   0.125067358179766   1.0000000
N2   N   0.777782608770351   0.888888251375299   0.125089704171172   1.0000000
N2   N   0.944449075010278   0.388898150020560   0.125091918603226   1.0000000
N2   N   0.111110707051523   0.555562240211532   0.624866214213354   1.0000000
N2   N   0.277775770358532   0.055551540717062   0.624677884326093   1.0000000
N2   N   0.777781792616272   0.555557562974803   0.624677884326093   1.0000000
N2   N   0.611105642604958   0.055550724562987   0.624910295828829   1.0000000
N2   N   0.944445081958029   0.055550724562987   0.624910295828829   1.0000000
N2   N   0.054602341014626   0.110474257313301   0.375000000000000   1.0000000
N2   N   0.556024990977232   0.612049981954460   0.375000000000000   1.0000000
N2   N   0.387695052397293   0.105453074749772   0.375000000000000   1.0000000
N2   N   0.890887389106225   0.612110361219781   0.375000000000000   1.0000000
N2   N   0.722394972141463   0.110938361191871   0.375000000000000   1.0000000
N2   N   0.055553814965672   0.777779518367663   0.875000000000000   1.0000000
N2   N   0.388893597105570   0.777779738117669   0.875000000000000   1.0000000
N2   N   0.222220864788896   0.277777099061115   0.875000000000000   1.0000000
N2   N   0.722221923946743   0.777779708345573   0.875000000000000   1.0000000
N2   N   0.555556234272219   0.277777099061115   0.875000000000000   1.0000000
N2   N   0.888888391582185   0.277776783164371   0.875000000000000   1.0000000
N2   N   0.221862488778935   0.777597911056136   0.375000000000000   1.0000000
N2   N   0.054602341014626   0.277461417034661   0.375000000000000   1.0000000
N2   N   0.377828507621036   0.255657015242078   0.375000000000000   1.0000000
N2   N   0.555871916298676   0.778730992318709   0.375000000000000   1.0000000
N2   N   0.890412466288429   0.779021496665303   0.375000000000000   1.0000000
N2   N   0.722859076020037   0.277461417034661   0.375000000000000   1.0000000
N2   N   0.055553595215669   0.944447192321240   0.875000000000000   1.0000000
N2   N   0.388893597105570   0.944447192321240   0.875000000000000   1.0000000
N2   N   0.222221562465721   0.444441498325199   0.875000000000000   1.0000000
N2   N   0.555563063270912   0.444448198302120   0.875000000000000   1.0000000
N2   N   0.722222537727080   0.944445075454162   0.875000000000000   1.0000000
N2   N   0.888886141012089   0.444439736227759   0.875000000000000   1.0000000
N2   N   0.054311836668033   0.444724302956462   0.375000000000000   1.0000000
N2   N   0.221222972113553   0.942445944227103   0.375000000000000   1.0000000
N2   N   0.555828242376719   0.944580787855024   0.375000000000000   1.0000000
N2   N   0.377828507621036   0.455504825712293   0.375000000000000   1.0000000
N2   N   0.888752545478304   0.944580787855024   0.375000000000000   1.0000000
N2   N   0.727880258583565   0.445638280936036   0.375000000000000   1.0000000
N2   N   0.222224076643675   0.611109256689659   0.875000000000000   1.0000000
N2   N   0.055553624987763   0.111111409386593   0.875000000000000   1.0000000
N2   N   0.555556234272219   0.611112468544442   0.875000000000000   1.0000000
N2   N   0.388891835008129   0.111113397473858   0.875000000000000   1.0000000
N2   N   0.888885180045978   0.611109256689659   0.875000000000000   1.0000000
N2   N   0.055735422277200   0.611470844554401   0.375000000000000   1.0000000
N2   N   0.722222537727080   0.111110795606256   0.875000000000000   1.0000000
N2   N   0.217758022352471   0.105453074749772   0.375000000000000   1.0000000
N2   N   0.387695052397293   0.615575310980866   0.375000000000000   1.0000000
N2   N   0.727880258583565   0.615575310980866   0.375000000000000   1.0000000
N2   N   0.555871916298676   0.110474257313301   0.375000000000000   1.0000000
N2   N   0.388891835008129   0.611111770867614   0.875000000000000   1.0000000
N2   N   0.888543389050398   0.110938361191871   0.375000000000000   1.0000000
N2   N   0.222225703401991   0.777779518367663   0.875000000000000   1.0000000
N2   N   0.055553624987763   0.277775548934506   0.875000000000000   1.0000000
N2   N   0.388885135031208   0.277770270062424   0.875000000000000   1.0000000
N2   N   0.555557784398830   0.777779708345573   0.875000000000000   1.0000000
N2   N   0.888886141012089   0.777779738117669   0.875000000000000   1.0000000
N2   N   0.722221923946743   0.277775548934506   0.875000000000000   1.0000000
N2   N   0.055735422277200   0.777597911056136   0.375000000000000   1.0000000
N2   N   0.388609030376867   0.779021496665303   0.375000000000000   1.0000000
N2   N   0.221283351378876   0.277308342356106   0.375000000000000   1.0000000
N2   N   0.722859076020037   0.778730992318709   0.375000000000000   1.0000000
N2   N   0.556024990977232   0.277308342356106   0.375000000000000   1.0000000
N2   N   0.888752545478304   0.277505090956618   0.375000000000000   1.0000000
N2   N   0.055553595215669   0.444439736227759   0.875000000000000   1.0000000
N2   N   0.222224076643675   0.944448153287352   0.875000000000000   1.0000000
N2   N   0.555556550168967   0.944444941751144   0.875000000000000   1.0000000
N2   N   0.388885135031208   0.444448198302120   0.875000000000000   1.0000000
N2   N   0.888888391582185   0.944444941751144   0.875000000000000   1.0000000
N2   N   0.054311836668033   0.942920867044900   0.375000000000000   1.0000000
N2   N   0.722219935859477   0.444441498325199   0.875000000000000   1.0000000
N2   N   0.388609030376867   0.942920867044900   0.375000000000000   1.0000000
N2   N   0.217758022352471   0.445638280936036   0.375000000000000   1.0000000
N2   N   0.221222972113553   0.612110361219781   0.375000000000000   1.0000000
N2   N   0.577676318091257   0.455504825712293   0.375000000000000   1.0000000
N2   N   0.722394972141463   0.944789944282930   0.375000000000000   1.0000000
N2   N   0.890412466288429   0.444724302956462   0.375000000000000   1.0000000
N2   N   0.055553814965672   0.611107629931344   0.875000000000000   1.0000000
N2   N   0.222221562465721   0.111113397473858   0.875000000000000   1.0000000
N2   N   0.722219935859477   0.611111770867614   0.875000000000000   1.0000000
N2   N   0.555557784398830   0.111111409386593   0.875000000000000   1.0000000
N2   N   0.888888257879166   0.111110795606256   0.875000000000000   1.0000000
B2   B   0.107603950920632   0.052437963763095   0.375000000000000   1.0000000
B2   B   0.619589429555315   0.564315082977918   0.375000000000000   1.0000000
B2   B   0.444834012842462   0.052437963763095   0.375000000000000   1.0000000
B2   B   0.945447422653736   0.555814212692838   0.375000000000000   1.0000000
B2   B   0.777777777777779   0.055555555555557   0.375000000000000   1.0000000
B2   B   0.111111111111114   0.722222222222221   0.875000000000000   1.0000000
B2   B   0.444456274983995   0.722252023590433   0.875000000000000   1.0000000
B2   B   0.277749569418931   0.222198064647857   0.875000000000000   1.0000000
B2   B   0.777795748606438   0.722252023590433   0.875000000000000   1.0000000
B2   B   0.611131096193690   0.222202237139645   0.875000000000000   1.0000000
B2   B   0.944422183624079   0.222207414183940   0.875000000000000   1.0000000
B2   B   0.277519120640498   0.722966543294235   0.375000000000000   1.0000000
B2   B   0.109039283979282   0.221186308656305   0.375000000000000   1.0000000
B2   B   0.444725653422602   0.213743903778019   0.375000000000000   1.0000000
B2   B   0.612147024677030   0.724294049354054   0.375000000000000   1.0000000
B2   B   0.945447422653736   0.722966543294235   0.375000000000000   1.0000000
B2   B   0.778027204965465   0.221637459793090   0.375000000000000   1.0000000
B2   B   0.111101334870432   0.888881439669771   0.875000000000000   1.0000000
B2   B   0.444458278372737   0.888895805853030   0.875000000000000   1.0000000
B2   B   0.277749569418931   0.388884838104401   0.875000000000000   1.0000000
B2   B   0.611135268685478   0.388884838104401   0.875000000000000   1.0000000
B2   B   0.777785230559862   0.888911149709249   0.875000000000000   1.0000000
B2   B   0.944437527480298   0.388875054960592   0.875000000000000   1.0000000
B2   B   0.107603950920632   0.388499320490866   0.375000000000000   1.0000000
B2   B   0.277519120640498   0.887885910679592   0.375000000000000   1.0000000
B2   B   0.611695873540245   0.889723078505706   0.375000000000000   1.0000000
B2   B   0.944225244169667   0.889108089163662   0.375000000000000   1.0000000
B2   B   0.780895369570241   0.388499320490866   0.375000000000000   1.0000000
B2   B   0.277765857318094   0.555567476015242   0.875000000000000   1.0000000
B2   B   0.111081309742904   0.055537584726899   0.875000000000000   1.0000000
B2   B   0.611135268685478   0.555583763914403   0.875000000000000   1.0000000
B2   B   0.444456274983995   0.055537584726899   0.875000000000000   1.0000000
B2   B   0.944451893663558   0.555553228533992   0.875000000000000   1.0000000
B2   B   0.110366790039101   0.555814212692838   0.375000000000000   1.0000000
B2   B   0.777777777777779   0.055555555555557   0.875000000000000   1.0000000
B2   B   0.275976305377489   0.051952610754978   0.375000000000000   1.0000000
B2   B   0.444725653422602   0.564315082977918   0.375000000000000   1.0000000
B2   B   0.781380722578358   0.557357027955845   0.375000000000000   1.0000000
B2   B   0.611695873540245   0.055306128367869   0.375000000000000   1.0000000
B2   B   0.444448495228927   0.555583763914403   0.875000000000000   1.0000000
B2   B   0.943610254827623   0.055306128367869   0.375000000000000   1.0000000
B2   B   0.277780104799346   0.722231998462903   0.875000000000000   1.0000000
B2   B   0.111071140945962   0.222202237139645   0.875000000000000   1.0000000
B2   B   0.444448495228927   0.222198064647857   0.875000000000000   1.0000000
B2   B   0.611131096193690   0.722262192387375   0.875000000000000   1.0000000
B2   B   0.944451893663558   0.722231998462903   0.875000000000000   1.0000000
B2   B   0.777785230559862   0.222207414183940   0.875000000000000   1.0000000
B2   B   0.111111111111114   0.722222222222221   0.375000000000000   1.0000000
B2   B   0.444834012842462   0.725729382412705   0.375000000000000   1.0000000
B2   B   0.269018250355419   0.213743903778019   0.375000000000000   1.0000000
B2   B   0.780895369570241   0.725729382412705   0.375000000000000   1.0000000
B2   B   0.612147024677030   0.221186308656305   0.375000000000000   1.0000000
B2   B   0.943610254827623   0.221637459793090   0.375000000000000   1.0000000
B2   B   0.111081309742904   0.388877058349334   0.875000000000000   1.0000000
B2   B   0.277780104799346   0.888881439669771   0.875000000000000   1.0000000
B2   B   0.611125919149397   0.888911149709249   0.875000000000000   1.0000000
B2   B   0.444444444444443   0.388888888888886   0.875000000000000   1.0000000
B2   B   0.944437527480298   0.888895805853030   0.875000000000000   1.0000000
B2   B   0.110366790039101   0.887885910679592   0.375000000000000   1.0000000
B2   B   0.777795748606438   0.388877058349334   0.875000000000000   1.0000000
B2   B   0.444882844993994   0.889108089163662   0.375000000000000   1.0000000
B2   B   0.269018250355419   0.388607679910726   0.375000000000000   1.0000000
B2   B   0.275976305377489   0.557357027955845   0.375000000000000   1.0000000
B2   B   0.619589429555315   0.388607679910726   0.375000000000000   1.0000000
B2   B   0.778027204965465   0.889723078505706   0.375000000000000   1.0000000
B2   B   0.944225244169666   0.388450488339335   0.375000000000000   1.0000000
B2   B   0.111101334870432   0.555553228533992   0.875000000000000   1.0000000
B2   B   0.277765857318094   0.055531714636189   0.875000000000000   1.0000000
B2   B   0.777801618697147   0.555567476015242   0.875000000000000   1.0000000
B2   B   0.611125919149397   0.055548102773474   0.875000000000000   1.0000000
B2   B   0.944422183624079   0.055548102773474   0.875000000000000   1.0000000
B2   B   0.055475439511417   0.111043668526265   0.124927944919917   1.0000000
B2   B   0.555618681301907   0.611237362603811   0.124576739740204   1.0000000
B2   B   0.388843387304270   0.110969718151186   0.124901227299347   1.0000000
B2   B   0.888986313785312   0.611159823559327   0.124941729334589   1.0000000
B2   B   0.722234488516960   0.111098844816376   0.124885028644587   1.0000000
B2   B   0.055569590944701   0.777763742388635   0.625103351813792   1.0000000
B2   B   0.388857750709277   0.777810238099615   0.625078362741895   1.0000000
B2   B   0.222095970729526   0.277714652031430   0.625423260259796   1.0000000
B2   B   0.722289664807069   0.777857893821918   0.625072055080083   1.0000000
B2   B   0.555618681301907   0.277714652031430   0.625423260259796   1.0000000
B2   B   0.888890917371346   0.277781834742698   0.625117454402297   1.0000000
B2   B   0.222194151443933   0.777763742388635   0.124896648186209   1.0000000
B2   B   0.055475439511417   0.277765104318488   0.124927944919917   1.0000000
B2   B   0.388844620496368   0.277689240992743   0.123260126046739   1.0000000
B2   B   0.555568229014848   0.777857893821918   0.124927944919917   1.0000000
B2   B   0.888952487390334   0.777810238099615   0.124921637258105   1.0000000
B2   B   0.722289664807069   0.277765104318488   0.124927944919917   1.0000000
B2   B   0.055523095233719   0.944380845942995   0.625078362741895   1.0000000
B2   B   0.388857750709277   0.944380845942995   0.625078362741895   1.0000000
B2   B   0.222126330846909   0.444489946029059   0.625098772700653   1.0000000
B2   B   0.555644092340593   0.444488712836961   0.626739873953260   1.0000000
B2   B   0.722234488516960   0.944468977033920   0.625114971355413   1.0000000
B2   B   0.888952487390334   0.444475582624052   0.625078362741895   1.0000000
B2   B   0.055523095233719   0.444475582624052   0.124921637258105   1.0000000
B2   B   0.222173509774008   0.944347019548016   0.124941729334589   1.0000000
B2   B   0.555551498590637   0.944442415961983   0.124882545597703   1.0000000
B2   B   0.388844620496368   0.444488712836961   0.123260126046739   1.0000000
B2   B   0.888890917371346   0.944442415961983   0.124882545597703   1.0000000
B2   B   0.722363615182149   0.444489946029059   0.124901227299347   1.0000000
B2   B   0.222173509774008   0.611159823559327   0.625058270665409   1.0000000
B2   B   0.055475439511417   0.111043668526265   0.625072055080083   1.0000000
B2   B   0.555618681301907   0.611237362603811   0.625423260259796   1.0000000
B2   B   0.388843387304270   0.110969718151186   0.625098772700653   1.0000000
B2   B   0.888986313785312   0.611159823559327   0.625058270665409   1.0000000
B2   B   0.055569590944701   0.611139181889402   0.124896648186209   1.0000000
B2   B   0.722234488516960   0.111098844816376   0.625114971355413   1.0000000
B2   B   0.222126330846909   0.110969718151186   0.124901227299347   1.0000000
B2   B   0.388843387304270   0.611207002486425   0.124901227299347   1.0000000
B2   B   0.722363615182149   0.611207002486425   0.124901227299347   1.0000000
B2   B   0.555568229014848   0.111043668526265   0.124927944919917   1.0000000
B2   B   0.388843387304270   0.611207002486425   0.625098772700653   1.0000000
B2   B   0.888864356299408   0.111098844816376   0.124885028644587   1.0000000
B2   B   0.222194151443933   0.777763742388635   0.625103351813792   1.0000000
B2   B   0.055475439511417   0.277765104318488   0.625072055080083   1.0000000
B2   B   0.388844620496368   0.277689240992743   0.626739873953260   1.0000000
B2   B   0.555568229014848   0.777857893821918   0.625072055080083   1.0000000
B2   B   0.888952487390334   0.777810238099615   0.625078362741895   1.0000000
B2   B   0.722289664807069   0.277765104318488   0.625072055080083   1.0000000
B2   B   0.055569590944701   0.777763742388635   0.124896648186209   1.0000000
B2   B   0.388857750709277   0.777810238099615   0.124921637258105   1.0000000
B2   B   0.222095970729526   0.277714652031430   0.124576739740204   1.0000000
B2   B   0.722289664807069   0.777857893821918   0.124927944919917   1.0000000
B2   B   0.555618681301907   0.277714652031430   0.124576739740204   1.0000000
B2   B   0.888890917371346   0.277781834742698   0.124882545597703   1.0000000
B2   B   0.055523095233719   0.444475582624052   0.625078362741895   1.0000000
B2   B   0.222173509774008   0.944347019548016   0.625058270665409   1.0000000
B2   B   0.555551498590637   0.944442415961983   0.625117454402297   1.0000000
B2   B   0.388844620496368   0.444488712836961   0.626739873953260   1.0000000
B2   B   0.888890917371346   0.944442415961983   0.625117454402297   1.0000000
B2   B   0.055523095233719   0.944380845942995   0.124921637258105   1.0000000
B2   B   0.722363615182149   0.444489946029059   0.625098772700653   1.0000000
B2   B   0.388857750709277   0.944380845942995   0.124921637258105   1.0000000
B2   B   0.222126330846909   0.444489946029059   0.124901227299347   1.0000000
B2   B   0.222173509774008   0.611159823559327   0.124941729334589   1.0000000
B2   B   0.555644092340593   0.444488712836961   0.123260126046739   1.0000000
B2   B   0.722234488516960   0.944468977033920   0.124885028644587   1.0000000
B2   B   0.888952487390334   0.444475582624052   0.124921637258105   1.0000000
B2   B   0.055569590944701   0.611139181889402   0.625103351813792   1.0000000
B2   B   0.222126330846909   0.110969718151186   0.625098772700653   1.0000000
B2   B   0.722363615182149   0.611207002486425   0.625098772700653   1.0000000
B2   B   0.555568229014848   0.111043668526265   0.625072055080083   1.0000000
B2   B   0.888864356299408   0.111098844816376   0.625114971355413   1.0000000


