data_1
_audit_creation_method   'vasp2cif'
_cell_length_a    14.93631414619966
_cell_length_b    14.936314146199727
_cell_length_c    13.341276283792837
_cell_angle_alpha    90.0
_cell_angle_beta    90.0
_cell_angle_gamma    119.99999999999984

_symmetry_space_group_name_H-M    'P 1'
loop_
_atom_site_label
_atom_site_type_symbol
_atom_site_fract_x
_atom_site_fract_y
_atom_site_fract_z
_atom_site_occupancy
C2   C   0.390268618517183   0.437216379720904   0.375000000000000   1.0000000
C2   C   0.440246078524880   0.380492157049758   0.375000000000000   1.0000000
C2   C   0.546947761203721   0.437216379720904   0.375000000000000   1.0000000
N2   N   0.111118800941270   0.055532864790720   0.125595264513294   1.0000000
N2   N   0.611047172716199   0.555491441954200   0.126317366354531   1.0000000
N2   N   0.444414063849450   0.055532864790720   0.125595264513294   1.0000000
N2   N   0.944434329673413   0.555550225152046   0.125315927895509   1.0000000
N2   N   0.777779993646327   0.055559987292655   0.125095572971482   1.0000000
N2   N   0.111096349204051   0.722192698408095   0.624828609766621   1.0000000
N2   N   0.444428333422876   0.722182895513022   0.624473020844670   1.0000000
N2   N   0.277787445127750   0.222211830809400   0.623502968958171   1.0000000
N2   N   0.777754562090144   0.722182895513022   0.624473020844670   1.0000000
N2   N   0.611089522636826   0.222209268566087   0.624349521004662   1.0000000
N2   N   0.944462193374793   0.222241690521120   0.624847234230967   1.0000000
N2   N   0.277763926728675   0.722184211069238   0.125274416019007   1.0000000
N2   N   0.111119745929268   0.222209268566087   0.125650478995339   1.0000000
N2   N   0.444424385681650   0.222211830809400   0.126497031041830   1.0000000
N2   N   0.611100589978717   0.722201179957428   0.125515346942703   1.0000000
N2   N   0.944420284340563   0.722184211069238   0.125274416019007   1.0000000
N2   N   0.777779497146326   0.222241690521120   0.125152765769032   1.0000000
N2   N   0.111094246945892   0.888844874337172   0.624752676863474   1.0000000
N2   N   0.444416679766588   0.888861073928556   0.624843925212886   1.0000000
N2   N   0.277792454972304   0.388852743906541   0.623638119291023   1.0000000
N2   N   0.611060288934244   0.388852743906541   0.623638119291023   1.0000000
N2   N   0.777776877666833   0.888872648503349   0.624871128140124   1.0000000
N2   N   0.944453446168821   0.388906892337642   0.624852980251283   1.0000000
N2   N   0.111120038173875   0.388892880380697   0.125523496225469   1.0000000
N2   N   0.277750627391287   0.888844874337172   0.125247323136525   1.0000000
N2   N   0.611095770836523   0.888872648503349   0.125128871859875   1.0000000
N2   N   0.444420060463979   0.388840120927957   0.123726398137240   1.0000000
N2   N   0.944444394161969   0.888861073928556   0.125156074787114   1.0000000
N2   N   0.777772842206829   0.388892880380697   0.125523496225469   1.0000000
N2   N   0.277789529316568   0.555512946238842   0.624088709697888   1.0000000
N2   N   0.111118800941270   0.055532864790720   0.624404735486707   1.0000000
N2   N   0.611047172716199   0.555491441954200   0.623682633645469   1.0000000
N2   N   0.444414063849450   0.055532864790720   0.624404735486707   1.0000000
N2   N   0.944434329673413   0.555550225152046   0.624684072104491   1.0000000
N2   N   0.111115895478633   0.555550225152046   0.125315927895509   1.0000000
N2   N   0.777779993646327   0.055559987292655   0.624904427028517   1.0000000
N2   N   0.277759609529449   0.055519219058899   0.125864684824550   1.0000000
N2   N   0.444444269237999   0.555491441954200   0.126317366354531   1.0000000
N2   N   0.777723416922275   0.555512946238842   0.125911290302112   1.0000000
N2   N   0.611089520489820   0.055543918322854   0.125159534906756   1.0000000
N2   N   0.444444269237999   0.555491441954200   0.623682633645469   1.0000000
N2   N   0.944454397833033   0.055543918322854   0.125159534906756   1.0000000
N2   N   0.277763926728675   0.722184211069238   0.624725583980992   1.0000000
N2   N   0.111119745929268   0.222209268566087   0.624349521004662   1.0000000
N2   N   0.444424385681650   0.222211830809400   0.623502968958171   1.0000000
N2   N   0.611100589978717   0.722201179957428   0.624484653057297   1.0000000
N2   N   0.944420284340563   0.722184211069238   0.624725583980992   1.0000000
N2   N   0.777779497146326   0.222241690521120   0.624847234230967   1.0000000
N2   N   0.111096349204051   0.722192698408095   0.125171390233379   1.0000000
N2   N   0.444428333422876   0.722182895513022   0.125526979155330   1.0000000
N2   N   0.277787445127750   0.222211830809400   0.126497031041830   1.0000000
N2   N   0.777754562090144   0.722182895513022   0.125526979155330   1.0000000
N2   N   0.611089522636826   0.222209268566087   0.125650478995339   1.0000000
N2   N   0.944462193374793   0.222241690521120   0.125152765769032   1.0000000
N2   N   0.111120038173875   0.388892880380697   0.624476503774531   1.0000000
N2   N   0.277750627391287   0.888844874337172   0.624752676863474   1.0000000
N2   N   0.611095770836523   0.888872648503349   0.624871128140124   1.0000000
N2   N   0.444420060463979   0.388840120927957   0.626273601862759   1.0000000
N2   N   0.944444394161969   0.888861073928556   0.624843925212886   1.0000000
N2   N   0.111094246945892   0.888844874337172   0.125247323136525   1.0000000
N2   N   0.777772842206829   0.388892880380697   0.624476503774531   1.0000000
N2   N   0.444416679766588   0.888861073928556   0.125156074787114   1.0000000
N2   N   0.277792454972304   0.388852743906541   0.126361880708977   1.0000000
N2   N   0.277789529316568   0.555512946238842   0.125911290302112   1.0000000
N2   N   0.611060288934244   0.388852743906541   0.126361880708977   1.0000000
N2   N   0.777776877666833   0.888872648503349   0.125128871859875   1.0000000
N2   N   0.944453446168821   0.388906892337642   0.125147019748717   1.0000000
N2   N   0.111115895478633   0.555550225152046   0.624684072104491   1.0000000
N2   N   0.277759609529449   0.055519219058899   0.624135315175449   1.0000000
N2   N   0.777723416922275   0.555512946238842   0.624088709697888   1.0000000
N2   N   0.611089520489820   0.055543918322854   0.624840465093243   1.0000000
N2   N   0.944454397833033   0.055543918322854   0.624840465093243   1.0000000
N2   N   0.055325566193001   0.110826155936295   0.375000000000000   1.0000000
N2   N   0.557736103119652   0.615472206239304   0.375000000000000   1.0000000
N2   N   0.388699019892439   0.113655042685752   0.375000000000000   1.0000000
N2   N   0.888298717838815   0.611116458025403   0.375000000000000   1.0000000
N2   N   0.722318878852969   0.111295820506886   0.375000000000000   1.0000000
N2   N   0.055559665659728   0.777791311738847   0.875000000000000   1.0000000
N2   N   0.388901479430586   0.777796005939895   0.875000000000000   1.0000000
N2   N   0.222228946757004   0.277792707118633   0.875000000000000   1.0000000
N2   N   0.722231031490514   0.777797236940252   0.875000000000000   1.0000000
N2   N   0.555563760361628   0.277792707118633   0.875000000000000   1.0000000
N2   N   0.888891595981519   0.277783191963045   0.875000000000000   1.0000000
N2   N   0.222519705520101   0.778218560176218   0.375000000000000   1.0000000
N2   N   0.055251374853153   0.277652258911363   0.375000000000000   1.0000000
N2   N   0.556006678006614   0.779381246916337   0.375000000000000   1.0000000
N2   N   0.889174535774599   0.778334916655673   0.375000000000000   1.0000000
N2   N   0.722400884058212   0.277652258911363   0.375000000000000   1.0000000
N2   N   0.055564509658144   0.944465968730262   0.875000000000000   1.0000000
N2   N   0.388901459072118   0.944465968730262   0.875000000000000   1.0000000
N2   N   0.222230769737898   0.444456684072727   0.875000000000000   1.0000000
N2   N   0.555572872083109   0.444471932682373   0.875000000000000   1.0000000
N2   N   0.722229103180105   0.944458206360212   0.875000000000000   1.0000000
N2   N   0.888892045460996   0.444451112424070   0.875000000000000   1.0000000
N2   N   0.055339644286022   0.444606543891156   0.375000000000000   1.0000000
N2   N   0.222686908172529   0.945373816345058   0.375000000000000   1.0000000
N2   N   0.555623813298732   0.944992588603949   0.375000000000000   1.0000000
N2   N   0.889368775305216   0.944992588603949   0.375000000000000   1.0000000
N2   N   0.722735169430216   0.443822038485666   0.375000000000000   1.0000000
N2   N   0.222231514611594   0.611118579433314   0.875000000000000   1.0000000
N2   N   0.055561338347495   0.111123196742258   0.875000000000000   1.0000000
N2   N   0.555565846331867   0.611131692663735   0.875000000000000   1.0000000
N2   N   0.388900915814438   0.111132420860145   0.875000000000000   1.0000000
N2   N   0.888887064821712   0.611118579433314   0.875000000000000   1.0000000
N2   N   0.055707682719156   0.611415365438311   0.375000000000000   1.0000000
N2   N   0.722224404620975   0.111117852785954   0.875000000000000   1.0000000
N2   N   0.224956022793305   0.113655042685752   0.375000000000000   1.0000000
N2   N   0.389953640697443   0.611042989967093   0.375000000000000   1.0000000
N2   N   0.721089349269644   0.611042989967093   0.375000000000000   1.0000000
N2   N   0.555500589743294   0.110826155936295   0.375000000000000   1.0000000
N2   N   0.388902206868119   0.611128227982299   0.875000000000000   1.0000000
N2   N   0.888976941653908   0.111295820506886   0.375000000000000   1.0000000
N2   N   0.222231646079120   0.777791311738847   0.875000000000000   1.0000000
N2   N   0.055558782694480   0.277784465485560   0.875000000000000   1.0000000
N2   N   0.388895332808181   0.277790665616371   0.875000000000000   1.0000000
N2   N   0.555566205449738   0.777797236940252   0.875000000000000   1.0000000
N2   N   0.888894526509300   0.777796005939895   0.875000000000000   1.0000000
N2   N   0.722225682791080   0.277784465485560   0.875000000000000   1.0000000
N2   N   0.055698854656118   0.778218560176218   0.375000000000000   1.0000000
N2   N   0.389160380881066   0.778334916655673   0.375000000000000   1.0000000
N2   N   0.221177284469245   0.276718508266815   0.375000000000000   1.0000000
N2   N   0.723374568909723   0.779381246916337   0.375000000000000   1.0000000
N2   N   0.555541223797571   0.276718508266815   0.375000000000000   1.0000000
N2   N   0.888939834362012   0.277879668724033   0.375000000000000   1.0000000
N2   N   0.055559066963074   0.444451112424070   0.875000000000000   1.0000000
N2   N   0.222233542049946   0.944467084099890   0.875000000000000   1.0000000
N2   N   0.555562538350371   0.944460868498849   0.875000000000000   1.0000000
N2   N   0.388899060599263   0.444471932682373   0.875000000000000   1.0000000
N2   N   0.888898330148480   0.944460868498849   0.875000000000000   1.0000000
N2   N   0.056486685949588   0.945489247387006   0.375000000000000   1.0000000
N2   N   0.722225914334829   0.444456684072727   0.875000000000000   1.0000000
N2   N   0.389002561437418   0.945489247387006   0.375000000000000   1.0000000
N2   N   0.221086869055451   0.443822038485666   0.375000000000000   1.0000000
N2   N   0.222817740186581   0.611116458025403   0.375000000000000   1.0000000
N2   N   0.722577918992456   0.945155837984910   0.375000000000000   1.0000000
N2   N   0.889266899605134   0.444606543891156   0.375000000000000   1.0000000
N2   N   0.055557545181104   0.611115090362208   0.875000000000000   1.0000000
N2   N   0.222231505045700   0.111132420860145   0.875000000000000   1.0000000
N2   N   0.722226021114173   0.611128227982299   0.875000000000000   1.0000000
N2   N   0.555561858394763   0.111123196742258   0.875000000000000   1.0000000
N2   N   0.888893448164973   0.111117852785954   0.875000000000000   1.0000000
B2   B   0.110461088275486   0.055688301633873   0.375000000000000   1.0000000
B2   B   0.611369115354293   0.560068597449270   0.375000000000000   1.0000000
B2   B   0.445227213358387   0.055688301633873   0.375000000000000   1.0000000
B2   B   0.944642239325441   0.555759969754651   0.375000000000000   1.0000000
B2   B   0.777920624585966   0.055841249171931   0.375000000000000   1.0000000
B2   B   0.111112645612638   0.722225291225270   0.875000000000000   1.0000000
B2   B   0.444473808339547   0.722290747900483   0.875000000000000   1.0000000
B2   B   0.277741809484710   0.222204239924189   0.875000000000000   1.0000000
B2   B   0.777816939560936   0.722290747900483   0.875000000000000   1.0000000
B2   B   0.611153173891615   0.222199810699801   0.875000000000000   1.0000000
B2   B   0.944412097651167   0.222208757527317   0.875000000000000   1.0000000
B2   B   0.278148571513522   0.722709035310850   0.375000000000000   1.0000000
B2   B   0.108023118091641   0.220434881671949   0.375000000000000   1.0000000
B2   B   0.448334871189298   0.220661857214986   0.375000000000000   1.0000000
B2   B   0.613192708534554   0.726385417069099   0.375000000000000   1.0000000
B2   B   0.944560463797327   0.722709035310850   0.375000000000000   1.0000000
B2   B   0.778208449535077   0.221946227073386   0.375000000000000   1.0000000
B2   B   0.111097798410315   0.888881511941865   0.875000000000000   1.0000000
B2   B   0.444470267038596   0.888902881007347   0.875000000000000   1.0000000
B2   B   0.277730727172546   0.388904676826958   0.875000000000000   1.0000000
B2   B   0.611173949654418   0.388904676826958   0.875000000000000   1.0000000
B2   B   0.777788619751400   0.888930036963139   0.875000000000000   1.0000000
B2   B   0.944440023860849   0.388880047721698   0.875000000000000   1.0000000
B2   B   0.109464918960764   0.388610347854287   0.375000000000000   1.0000000
B2   B   0.277965324852523   0.889042906123028   0.375000000000000   1.0000000
B2   B   0.611710726512390   0.890278928320667   0.375000000000000   1.0000000
B2   B   0.944698005222785   0.889502780700896   0.375000000000000   1.0000000
B2   B   0.779145428893530   0.388610347854287   0.375000000000000   1.0000000
B2   B   0.277773564126097   0.555599606351168   0.875000000000000   1.0000000
B2   B   0.111063436820468   0.055534134649711   0.875000000000000   1.0000000
B2   B   0.611172945454939   0.555648965876530   0.875000000000000   1.0000000
B2   B   0.444470697829244   0.055534134649711   0.875000000000000   1.0000000
B2   B   0.944464279297147   0.555567910521361   0.875000000000000   1.0000000
B2   B   0.111117730429212   0.555759969754651   0.375000000000000   1.0000000
B2   B   0.777777151894357   0.055554303788711   0.875000000000000   1.0000000
B2   B   0.277423940468023   0.054847880936046   0.375000000000000   1.0000000
B2   B   0.448699482094979   0.560068597449270   0.375000000000000   1.0000000
B2   B   0.777945321503648   0.555922699060571   0.375000000000000   1.0000000
B2   B   0.611596776191456   0.055360934451250   0.375000000000000   1.0000000
B2   B   0.444476020421592   0.555648965876530   0.875000000000000   1.0000000
B2   B   0.943764158259793   0.055360934451250   0.375000000000000   1.0000000
B2   B   0.277790857608076   0.722247340331161   0.875000000000000   1.0000000
B2   B   0.111046636808193   0.222199810699801   0.875000000000000   1.0000000
B2   B   0.444462430439479   0.222204239924189   0.875000000000000   1.0000000
B2   B   0.611155928030634   0.722311856061261   0.875000000000000   1.0000000
B2   B   0.944456482723087   0.722247340331161   0.875000000000000   1.0000000
B2   B   0.777796659876150   0.222208757527317   0.875000000000000   1.0000000
B2   B   0.111260939490075   0.722521878980143   0.375000000000000   1.0000000
B2   B   0.445257229879948   0.723621097452227   0.375000000000000   1.0000000
B2   B   0.272326986025688   0.220661857214986   0.375000000000000   1.0000000
B2   B   0.778363867572280   0.723621097452227   0.375000000000000   1.0000000
B2   B   0.612411763580315   0.220434881671949   0.375000000000000   1.0000000
B2   B   0.943737777538310   0.221946227073386   0.375000000000000   1.0000000
B2   B   0.111068302861170   0.388888712098500   0.875000000000000   1.0000000
B2   B   0.277783713531557   0.888881511941865   0.875000000000000   1.0000000
B2   B   0.611141417211745   0.888930036963139   0.875000000000000   1.0000000
B2   B   0.444456241594754   0.388912483189507   0.875000000000000   1.0000000
B2   B   0.944432613968751   0.888902881007347   0.875000000000000   1.0000000
B2   B   0.111077581270513   0.889042906123028   0.375000000000000   1.0000000
B2   B   0.777820409237337   0.388888712098500   0.875000000000000   1.0000000
B2   B   0.444804775478112   0.889502780700896   0.375000000000000   1.0000000
B2   B   0.271771621424222   0.386179925444931   0.375000000000000   1.0000000
B2   B   0.277977377556923   0.555922699060571   0.375000000000000   1.0000000
B2   B   0.614408304020717   0.386179925444931   0.375000000000000   1.0000000
B2   B   0.778568201808284   0.890278928320667   0.375000000000000   1.0000000
B2   B   0.944432026714368   0.388864053428739   0.375000000000000   1.0000000
B2   B   0.111103631224213   0.555567910521361   0.875000000000000   1.0000000
B2   B   0.277761663039280   0.055523326078559   0.875000000000000   1.0000000
B2   B   0.777826042225072   0.555599606351168   0.875000000000000   1.0000000
B2   B   0.611136947042092   0.055548474407450   0.875000000000000   1.0000000
B2   B   0.944411527365358   0.055548474407450   0.875000000000000   1.0000000
B2   B   0.055400009630713   0.110981644806354   0.124838270235146   1.0000000
B2   B   0.555668260556303   0.611336521112607   0.125315678953214   1.0000000
B2   B   0.388811434874292   0.110865172456601   0.125129247094061   1.0000000
B2   B   0.889035258111038   0.611171964529174   0.124986271815123   1.0000000
B2   B   0.722246823568906   0.111084839900198   0.124699985928772   1.0000000
B2   B   0.055539704513028   0.777691706328435   0.625237335422263   1.0000000
B2   B   0.388842865387219   0.777782329950324   0.625143263498717   1.0000000
B2   B   0.222009178542190   0.277656277632443   0.624845260414288   1.0000000
B2   B   0.722290740849425   0.777872901646526   0.625100556412078   1.0000000
B2   B   0.555647099090252   0.277656277632443   0.624845260414288   1.0000000
B2   B   0.888904211795622   0.277808423591251   0.625282478653179   1.0000000
B2   B   0.222152001815407   0.777691706328435   0.124762664577735   1.0000000
B2   B   0.055422778380516   0.277771977359199   0.124849241730609   1.0000000
B2   B   0.388884661492799   0.277769322985605   0.124494092118241   1.0000000
B2   B   0.555582160797102   0.777872901646526   0.124899443587921   1.0000000
B2   B   0.888939464563098   0.777782329950324   0.124856736501284   1.0000000
B2   B   0.722349198978682   0.277771977359199   0.124849241730609   1.0000000
B2   B   0.055455315715796   0.944279118158139   0.625217797075979   1.0000000
B2   B   0.388823802442343   0.944279118158139   0.625217797075979   1.0000000
B2   B   0.222061924600729   0.444485031849972   0.624723735647698   1.0000000
B2   B   0.555511305398112   0.444417427109039   0.625649744864626   1.0000000
B2   B   0.722230427709513   0.944460855419024   0.625277128225073   1.0000000
B2   B   0.888983662640699   0.444481275798719   0.625141595020773   1.0000000
B2   B   0.055497613158020   0.444481275798719   0.124858404979228   1.0000000
B2   B   0.222102537186875   0.944205074373750   0.124828761177212   1.0000000
B2   B   0.555544823266348   0.944404862233767   0.124709169288272   1.0000000
B2   B   0.388906121710928   0.444417427109039   0.124350255135373   1.0000000
B2   B   0.888860038967417   0.944404862233767   0.124709169288272   1.0000000
B2   B   0.722423107249243   0.444485031849972   0.125276264352301   1.0000000
B2   B   0.222136706418127   0.611171964529174   0.625013728184877   1.0000000
B2   B   0.055400009630713   0.110981644806354   0.625161729764855   1.0000000
B2   B   0.555668260556303   0.611336521112607   0.624684321046785   1.0000000
B2   B   0.388811434874292   0.110865172456601   0.624870752905940   1.0000000
B2   B   0.889035258111038   0.611171964529174   0.625013728184877   1.0000000
B2   B   0.055566396589920   0.611132793179840   0.124837073624998   1.0000000
B2   B   0.722246823568906   0.111084839900198   0.625300014071228   1.0000000
B2   B   0.222053737582301   0.110865172456601   0.125129247094061   1.0000000
B2   B   0.388852432937643   0.611254462798115   0.125331749905219   1.0000000
B2   B   0.722402029860467   0.611254462798115   0.125331749905219   1.0000000
B2   B   0.555581635175641   0.110981644806354   0.124838270235146   1.0000000
B2   B   0.388852432937643   0.611254462798115   0.624668250094780   1.0000000
B2   B   0.888838016331284   0.111084839900198   0.124699985928772   1.0000000
B2   B   0.222152001815407   0.777691706328435   0.625237335422263   1.0000000
B2   B   0.055422778380516   0.277771977359199   0.625150758269390   1.0000000
B2   B   0.388884661492799   0.277769322985605   0.625505907881759   1.0000000
B2   B   0.555582160797102   0.777872901646526   0.625100556412078   1.0000000
B2   B   0.888939464563098   0.777782329950324   0.625143263498717   1.0000000
B2   B   0.722349198978682   0.277771977359199   0.625150758269390   1.0000000
B2   B   0.055539704513028   0.777691706328435   0.124762664577735   1.0000000
B2   B   0.388842865387219   0.777782329950324   0.124856736501284   1.0000000
B2   B   0.222009178542190   0.277656277632443   0.125154739585711   1.0000000
B2   B   0.722290740849425   0.777872901646526   0.124899443587921   1.0000000
B2   B   0.555647099090252   0.277656277632443   0.125154739585711   1.0000000
B2   B   0.888904211795622   0.277808423591251   0.124717521346821   1.0000000
B2   B   0.055497613158020   0.444481275798719   0.625141595020773   1.0000000
B2   B   0.222102537186875   0.944205074373750   0.625171238822787   1.0000000
B2   B   0.555544823266348   0.944404862233767   0.625290830711729   1.0000000
B2   B   0.388906121710928   0.444417427109039   0.625649744864626   1.0000000
B2   B   0.888860038967417   0.944404862233767   0.625290830711729   1.0000000
B2   B   0.055455315715796   0.944279118158139   0.124782202924020   1.0000000
B2   B   0.722423107249243   0.444485031849972   0.624723735647698   1.0000000
B2   B   0.388823802442343   0.944279118158139   0.124782202924020   1.0000000
B2   B   0.222061924600729   0.444485031849972   0.125276264352301   1.0000000
B2   B   0.222136706418127   0.611171964529174   0.124986271815123   1.0000000
B2   B   0.555511305398112   0.444417427109039   0.124350255135373   1.0000000
B2   B   0.722230427709513   0.944460855419024   0.124722871774926   1.0000000
B2   B   0.888983662640699   0.444481275798719   0.124858404979228   1.0000000
B2   B   0.055566396589920   0.611132793179840   0.625162926375001   1.0000000
B2   B   0.222053737582301   0.110865172456601   0.624870752905940   1.0000000
B2   B   0.722402029860467   0.611254462798115   0.624668250094780   1.0000000
B2   B   0.555581635175641   0.110981644806354   0.625161729764855   1.0000000
B2   B   0.888838016331284   0.111084839900198   0.625300014071228   1.0000000


