data_1
_audit_creation_method   'vasp2cif'
_cell_length_a    17.52789999999977
_cell_length_b    17.52789999999977
_cell_length_c    15.0
_cell_angle_alpha    90.0
_cell_angle_beta    90.0
_cell_angle_gamma    119.99999999999916

_symmetry_space_group_name_H-M    'P 1'
loop_
_atom_site_label
_atom_site_type_symbol
_atom_site_fract_x
_atom_site_fract_y
_atom_site_fract_z
_atom_site_occupancy
Sb2   Sb   0.498577916445832   0.501423485471142   0.110855908898017   1.0000000
B2   B   0.906292540043000   0.953650255531725   0.110992295734798   1.0000000
B2   B   0.904422759370830   0.095579261825201   0.110976297385073   1.0000000
B2   B   0.903899257789681   0.238257497515911   0.110962895143883   1.0000000
B2   B   0.904237036560351   0.381125767328508   0.110941395113137   1.0000000
B2   B   0.905799534770206   0.524153580377583   0.111032228623168   1.0000000
B2   B   0.907421536290670   0.667577671851522   0.111087713317725   1.0000000
B2   B   0.908278450907574   0.811658469145912   0.111047864769641   1.0000000
B2   B   0.048304282817039   0.951697738378950   0.110996975490824   1.0000000
B2   B   0.046351765664314   0.093709481153008   0.110992295734798   1.0000000
B2   B   0.045801197119280   0.236975270771572   0.110993188136588   1.0000000
B2   B   0.046425299434849   0.380360606422051   0.111016560526753   1.0000000
B2   B   0.048028328197921   0.523428443030508   0.111019803080753   1.0000000
B2   B   0.049213040788315   0.666336286787114   0.111075282620561   1.0000000
B2   B   0.049293966383755   0.809217531939816   0.111052949567759   1.0000000
B2   B   0.190784489256190   0.950708054812243   0.111052949567760   1.0000000
B2   B   0.188343552050089   0.091723570288427   0.111047864769641   1.0000000
B2   B   0.186078750814493   0.233580127821018   0.111041165815459   1.0000000
B2   B   0.187530140360131   0.378641957053229   0.111143206690220   1.0000000
B2   B   0.190313622715101   0.522554895178311   0.111176884295619   1.0000000
B2   B   0.191830387223926   0.665625176800724   0.111131463101267   1.0000000
B2   B   0.191630079069203   0.808371942126765   0.111042598167683   1.0000000
B2   B   0.333665734409853   0.950788980407715   0.111075282620561   1.0000000
B2   B   0.332424349345465   0.092580484905300   0.111087713317725   1.0000000
B2   B   0.327637805653242   0.230951862302994   0.110990057302381   1.0000000
B2   B   0.324442702517892   0.373007158633241   0.111039196494063   1.0000000
B2   B   0.332435979474274   0.520731265510216   0.111197287482134   1.0000000
B2   B   0.335051012712012   0.664951008484986   0.111251459243572   1.0000000
B2   B   0.334376844396295   0.808171633972084   0.111131463101267   1.0000000
B2   B   0.476573578166494   0.951973692998066   0.111019803080753   1.0000000
B2   B   0.475848440819401   0.094202486425766   0.111032228623168   1.0000000
B2   B   0.474661296739463   0.235677933898689   0.110974275817590   1.0000000
B2   B   0.464780504258666   0.366946973504280   0.110939151099837   1.0000000
B2   B   0.479270755686768   0.667566041722683   0.111197287482134   1.0000000
B2   B   0.477447126018673   0.809688398480913   0.111176884295619   1.0000000
B2   B   0.619641414773935   0.953576721761155   0.111016560526753   1.0000000
B2   B   0.618876253867489   0.095764984635634   0.110941395113137   1.0000000
B2   B   0.618502365962011   0.238501322317955   0.110971413207269   1.0000000
B2   B   0.618176544477269   0.381825476718731   0.110872203405686   1.0000000
B2   B   0.633055047691711   0.535221516938318   0.110939151099837   1.0000000
B2   B   0.626994862562781   0.675559318679118   0.111039196494063   1.0000000
B2   B   0.621360064142773   0.812471880835887   0.111143206690220   1.0000000
B2   B   0.763026750424417   0.954200824076754   0.110993188136588   1.0000000
B2   B   0.761744523680114   0.096102763406338   0.110962895143883   1.0000000
B2   B   0.761350933863565   0.238651087332434   0.110973228298985   1.0000000
B2   B   0.761500698878074   0.381499655233955   0.110971413207269   1.0000000
B2   B   0.764324087297343   0.525340724457526   0.110974275817590   1.0000000
B2   B   0.769050158892998   0.672364215543769   0.110990057302381   1.0000000
B2   B   0.766421893374969   0.813923270381506   0.111041165815459   1.0000000
N2   N   0.954057085033295   0.905916008965169   0.110967657816693   1.0000000
N2   N   0.952104252195548   0.047897149722476   0.110947676566156   1.0000000
N2   N   0.951138527885945   0.190353074387114   0.110938604535589   1.0000000
N2   N   0.951379425780226   0.333273534318452   0.110903584913646   1.0000000
N2   N   0.952711511763796   0.476214426833129   0.110932154157867   1.0000000
N2   N   0.954055699576401   0.619236819930089   0.111055523629331   1.0000000
N2   N   0.954558330499871   0.762592136121304   0.111043384480629   1.0000000
N2   N   0.095997650781549   0.904003751136418   0.110992261483802   1.0000000
N2   N   0.094085392952804   0.045944316884689   0.110967657816693   1.0000000
N2   N   0.092126760526282   0.187993908504011   0.110970388512702   1.0000000
N2   N   0.092870962552524   0.331945599574939   0.111031729762049   1.0000000
N2   N   0.094989718539873   0.475479655715161   0.111033732786416   1.0000000
N2   N   0.096449567140291   0.618498891659720   0.111040988667709   1.0000000
N2   N   0.096615487025025   0.761323182972893   0.111013909884730   1.0000000
N2   N   0.238678218945105   0.903385914892949   0.111013909884730   1.0000000
N2   N   0.237409265796688   0.045443071418123   0.111043384480629   1.0000000
N2   N   0.233734132403547   0.185699501365402   0.111007448570729   1.0000000
N2   N   0.231247910266920   0.327557384563126   0.111085919731542   1.0000000
N2   N   0.236668433717443   0.474072154119823   0.111194327140241   1.0000000
N2   N   0.239324889192206   0.617857617576574   0.111188829735577   1.0000000
N2   N   0.239228029219482   0.760773372698525   0.111071546411706   1.0000000
N2   N   0.381502510258269   0.903551834777730   0.111040988667709   1.0000000
N2   N   0.380764581987908   0.045945702341604   0.111055523629331   1.0000000
N2   N   0.379181882732189   0.187407234576215   0.111000295054588   1.0000000
N2   N   0.371832049961183   0.324445309361284   0.110919483112913   1.0000000
N2   N   0.370946960459549   0.465815799483609   0.111028709848076   1.0000000
N2   N   0.382919099419494   0.617082302498505   0.111226629211735   1.0000000
N2   N   0.382143784341444   0.760676512725831   0.111188829735577   1.0000000
N2   N   0.524521746201821   0.905011683378129   0.111033732786416   1.0000000
N2   N   0.523786975083872   0.047289890154232   0.110932154157867   1.0000000
N2   N   0.523186115659670   0.189596872607384   0.110973630705910   1.0000000
N2   N   0.522124858713409   0.331625790125764   0.110848805837974   1.0000000
N2   N   0.534185602433413   0.629054441458438   0.111028709848076   1.0000000
N2   N   0.525929247797162   0.763332968200564   0.111194327140241   1.0000000
N2   N   0.668055802342041   0.907130439365468   0.111031729762049   1.0000000
N2   N   0.666727867598532   0.048621976137771   0.110903584913646   1.0000000
N2   N   0.666178575996301   0.191102929945731   0.110937220138446   1.0000000
N2   N   0.665848944294639   0.334152457622333   0.110912497058261   1.0000000
N2   N   0.668375611791200   0.477876543203571   0.110848805837974   1.0000000
N2   N   0.675556092555720   0.628169351956839   0.110919483112913   1.0000000
N2   N   0.672444017353851   0.768753491651111   0.111085919731542   1.0000000
N2   N   0.812007493413981   0.907874641391705   0.110970388512701   1.0000000
N2   N   0.809648327530886   0.048862874032062   0.110938604535589   1.0000000
N2   N   0.808894520851497   0.191106881066505   0.110931350772625   1.0000000
N2   N   0.808898471972249   0.333822825920663   0.110937220138446   1.0000000
N2   N   0.810404529310609   0.476815286257312   0.110973630705910   1.0000000
N2   N   0.812594167341797   0.620819519185791   0.111000295054588   1.0000000
N2   N   0.814301900552584   0.766267269514496   0.111007448570729   1.0000000


