data_1
_audit_creation_method   'vasp2cif'
_cell_length_a    14.93631414619966
_cell_length_b    14.936314146199727
_cell_length_c    13.341276283792837
_cell_angle_alpha    90.0
_cell_angle_beta    90.0
_cell_angle_gamma    119.99999999999984

_symmetry_space_group_name_H-M    'P 1'
loop_
_atom_site_label
_atom_site_type_symbol
_atom_site_fract_x
_atom_site_fract_y
_atom_site_fract_z
_atom_site_occupancy
C2   C   0.441711277677362   0.379578335580550   0.375000000000000   1.0000000
C2   C   0.546363458057667   0.413523347242711   0.375000000000000   1.0000000
N2   N   0.111040271370657   0.055545155012954   0.125059014142938   1.0000000
N2   N   0.611090327810932   0.555524692795960   0.124791523552693   1.0000000
N2   N   0.444407403330055   0.055587567264155   0.125065744155729   1.0000000
N2   N   0.944439196666141   0.555571151895351   0.125028344111545   1.0000000
N2   N   0.777705429736363   0.055551296934896   0.125079293188291   1.0000000
N2   N   0.111093942175917   0.722233133217733   0.624982551944154   1.0000000
N2   N   0.444406844663652   0.722200511572401   0.624960974800429   1.0000000
N2   N   0.277699707937761   0.222205785422061   0.625021092267451   1.0000000
N2   N   0.777748919578374   0.722221577243442   0.624943158347540   1.0000000
N2   N   0.611076686652341   0.222290834029819   0.624794762981127   1.0000000
N2   N   0.944388672604891   0.222210305888761   0.624965848076463   1.0000000
N2   N   0.277754414512209   0.722221240929617   0.125013511858682   1.0000000
N2   N   0.111032211697702   0.222192086758334   0.125048122739779   1.0000000
N2   N   0.444397245080694   0.222250364954980   0.124760789938801   1.0000000
N2   N   0.611062168696815   0.722176152974939   0.125103340192522   1.0000000
N2   N   0.944431353215458   0.722245043731944   0.125033025022013   1.0000000
N2   N   0.777736227393339   0.222239636563228   0.125115330728263   1.0000000
N2   N   0.111079346886706   0.888906002836034   0.624973267053599   1.0000000
N2   N   0.444405697801785   0.888899660087908   0.624982190286387   1.0000000
N2   N   0.277729551736894   0.388853505381394   0.624963507643184   1.0000000
N2   N   0.611144798395403   0.388940213894068   0.625973365032890   1.0000000
N2   N   0.777714060170020   0.888872495915369   0.624923680491395   1.0000000
N2   N   0.944427862365211   0.388893146893621   0.624954327268213   1.0000000
N2   N   0.111077312661838   0.388874631885377   0.125080345037502   1.0000000
N2   N   0.277751579574908   0.888907162594599   0.125009677457252   1.0000000
N2   N   0.611048437240074   0.888877055002409   0.125071165803152   1.0000000
N2   N   0.444360584740197   0.388853241617192   0.124088445779029   1.0000000
N2   N   0.944397648940663   0.888893940937986   0.125030864669051   1.0000000
N2   N   0.777782583695987   0.388908658455174   0.124995840202106   1.0000000
N2   N   0.277751214903006   0.555533746523306   0.624948828033880   1.0000000
N2   N   0.111040271370657   0.055545155012953   0.624940985857064   1.0000000
N2   N   0.611090327810932   0.555524692795960   0.625208476447304   1.0000000
N2   N   0.444407403330055   0.055587567264155   0.624934255844275   1.0000000
N2   N   0.944439196666141   0.555571151895351   0.624971655888457   1.0000000
N2   N   0.111093056641971   0.555553677042392   0.125029867107595   1.0000000
N2   N   0.777705429736363   0.055551296934896   0.624920706811714   1.0000000
N2   N   0.277732394574314   0.055573718848182   0.125035404768686   1.0000000
N2   N   0.444414962361943   0.555520619955157   0.124923169974335   1.0000000
N2   N   0.777786715744450   0.555598307236584   0.124940993237012   1.0000000
N2   N   0.611051943865596   0.055587532964133   0.125146870617973   1.0000000
N2   N   0.444414962361943   0.555520619955157   0.625076830025665   1.0000000
N2   N   0.944367836780923   0.055537785833435   0.125029526964094   1.0000000
N2   N   0.277754414512209   0.722221240929616   0.624986488141322   1.0000000
N2   N   0.111032211697702   0.222192086758334   0.624951877260227   1.0000000
N2   N   0.444397245080694   0.222250364954980   0.625239210061197   1.0000000
N2   N   0.611062168696815   0.722176152974939   0.624896659807478   1.0000000
N2   N   0.944431353215458   0.722245043731944   0.624966974977987   1.0000000
N2   N   0.777736227393339   0.222239636563228   0.624884669271737   1.0000000
N2   N   0.111093942175917   0.722233133217733   0.125017448055846   1.0000000
N2   N   0.444406844663652   0.722200511572401   0.125039025199570   1.0000000
N2   N   0.277699707937761   0.222205785422061   0.124978907732546   1.0000000
N2   N   0.777748919578374   0.722221577243442   0.125056841652462   1.0000000
N2   N   0.611076686652341   0.222290834029819   0.125205237018871   1.0000000
N2   N   0.944388672604891   0.222210305888761   0.125034151923541   1.0000000
N2   N   0.111077312661838   0.388874631885377   0.624919654962494   1.0000000
N2   N   0.277751579574908   0.888907162594599   0.624990322542750   1.0000000
N2   N   0.611048437240074   0.888877055002409   0.624928834196841   1.0000000
N2   N   0.444360584740197   0.388853241617192   0.625911554220965   1.0000000
N2   N   0.944397648940663   0.888893940937986   0.624969135330946   1.0000000
N2   N   0.111079346886706   0.888906002836034   0.125026732946411   1.0000000
N2   N   0.777782583695987   0.388908658455174   0.625004159797893   1.0000000
N2   N   0.444405697801785   0.888899660087908   0.125017809713621   1.0000000
N2   N   0.277729551736894   0.388853505381394   0.125036492356810   1.0000000
N2   N   0.277751214903006   0.555533746523306   0.125051171966112   1.0000000
N2   N   0.611144798395403   0.388940213894068   0.124026634967104   1.0000000
N2   N   0.777714060170020   0.888872495915369   0.125076319508598   1.0000000
N2   N   0.944427862365211   0.388893146893621   0.125045672731792   1.0000000
N2   N   0.111093056641971   0.555553677042392   0.624970132892403   1.0000000
N2   N   0.277732394574314   0.055573718848182   0.624964595231306   1.0000000
N2   N   0.777786715744450   0.555598307236584   0.625059006762987   1.0000000
N2   N   0.611051943865596   0.055587532964133   0.624853129382027   1.0000000
N2   N   0.944367836780923   0.055537785833435   0.624970473035901   1.0000000
N2   N   0.052144199358506   0.109543250446981   0.375000000000000   1.0000000
N2   N   0.556829870748483   0.601508911595083   0.375000000000000   1.0000000
N2   N   0.388108979828592   0.114257871109409   0.375000000000000   1.0000000
N2   N   0.894446198836657   0.614256158727948   0.375000000000000   1.0000000
N2   N   0.720396311278286   0.113372815951071   0.375000000000000   1.0000000
N2   N   0.055553559180796   0.777781582797201   0.875000000000000   1.0000000
N2   N   0.388884674408034   0.777784193112017   0.875000000000000   1.0000000
N2   N   0.222218996586749   0.277784957927061   0.875000000000000   1.0000000
N2   N   0.722217556382989   0.777781165775830   0.875000000000000   1.0000000
N2   N   0.555551489497332   0.277779077807427   0.875000000000000   1.0000000
N2   N   0.888889356149607   0.277785012764534   0.875000000000000   1.0000000
N2   N   0.225321129149405   0.779457545397166   0.375000000000000   1.0000000
N2   N   0.053301007332967   0.277259554577554   0.375000000000000   1.0000000
N2   N   0.380080579108322   0.274699305966959   0.375000000000000   1.0000000
N2   N   0.556235225171108   0.775215675282892   0.375000000000000   1.0000000
N2   N   0.888487265735289   0.776766277277946   0.375000000000000   1.0000000
N2   N   0.720416731531498   0.281771446677613   0.375000000000000   1.0000000
N2   N   0.055551620062469   0.944448953289170   0.875000000000000   1.0000000
N2   N   0.388886613690297   0.944448564046383   0.875000000000000   1.0000000
N2   N   0.222218918718797   0.444452253685337   0.875000000000000   1.0000000
N2   N   0.555550999661706   0.444453200907522   0.875000000000000   1.0000000
N2   N   0.722218521746113   0.944448137673067   0.875000000000000   1.0000000
N2   N   0.888891971066581   0.444451071853284   0.875000000000000   1.0000000
N2   N   0.058302562749488   0.445095427207062   0.375000000000000   1.0000000
N2   N   0.223036613577932   0.945742383327096   0.375000000000000   1.0000000
N2   N   0.555955288753619   0.947796548715294   0.375000000000000   1.0000000
N2   N   0.390867716779885   0.437548086817974   0.375000000000000   1.0000000
N2   N   0.886539015826180   0.943035812209825   0.375000000000000   1.0000000
N2   N   0.740099525403098   0.454219727463871   0.375000000000000   1.0000000
N2   N   0.222216800178957   0.611115561772171   0.875000000000000   1.0000000
N2   N   0.055552069760071   0.111114050995042   0.875000000000000   1.0000000
N2   N   0.555548582570472   0.611114652245617   0.875000000000000   1.0000000
N2   N   0.388885493324730   0.111111160967582   0.875000000000000   1.0000000
N2   N   0.888891237101865   0.611115728020031   0.875000000000000   1.0000000
N2   N   0.059859701145830   0.612949425759547   0.375000000000000   1.0000000
N2   N   0.722217809952996   0.111114603912967   0.875000000000000   1.0000000
N2   N   0.218571118169422   0.109329834545131   0.375000000000000   1.0000000
N2   N   0.391497288167169   0.607788505249805   0.375000000000000   1.0000000
N2   N   0.722504622166210   0.608377792743863   0.375000000000000   1.0000000
N2   N   0.555467286050780   0.122167608231762   0.375000000000000   1.0000000
N2   N   0.388883290174025   0.611116621203437   0.875000000000000   1.0000000
N2   N   0.886186657706783   0.110782208543499   0.375000000000000   1.0000000
N2   N   0.222218629272794   0.777781404155045   0.875000000000000   1.0000000
N2   N   0.055554340031158   0.277784567922723   0.875000000000000   1.0000000
N2   N   0.388884053141931   0.277782388246060   0.875000000000000   1.0000000
N2   N   0.555549684318390   0.777781548831740   0.875000000000000   1.0000000
N2   N   0.888887842691590   0.777783496475587   0.875000000000000   1.0000000
N2   N   0.722220207274938   0.277782202588848   0.875000000000000   1.0000000
N2   N   0.058195452664472   0.779353388819571   0.375000000000000   1.0000000
N2   N   0.391324107779272   0.778137410925771   0.375000000000000   1.0000000
N2   N   0.217638558544946   0.275540599986917   0.375000000000000   1.0000000
N2   N   0.721167339053215   0.775229417798155   0.375000000000000   1.0000000
N2   N   0.549430229210684   0.299838034190647   0.375000000000000   1.0000000
N2   N   0.887333971159571   0.278702803820267   0.375000000000000   1.0000000
N2   N   0.055553987532889   0.444451078057832   0.875000000000000   1.0000000
N2   N   0.222218805396310   0.944447350950740   0.875000000000000   1.0000000
N2   N   0.555550412770106   0.944449265058485   0.875000000000000   1.0000000
N2   N   0.388883599440092   0.444454352691705   0.875000000000000   1.0000000
N2   N   0.888887490977954   0.944448726114924   0.875000000000000   1.0000000
N2   N   0.053892404162219   0.943360801904988   0.375000000000000   1.0000000
N2   N   0.722225585800151   0.444452701194323   0.875000000000000   1.0000000
N2   N   0.390757699731691   0.947689068449336   0.375000000000000   1.0000000
N2   N   0.224369430126620   0.443235004496721   0.375000000000000   1.0000000
N2   N   0.225635873002240   0.611372085286801   0.375000000000000   1.0000000
N2   N   0.720668248249943   0.944124354025566   0.375000000000000   1.0000000
N2   N   0.894004464125576   0.446985741520003   0.375000000000000   1.0000000
N2   N   0.055554266361027   0.611113726654237   0.875000000000000   1.0000000
N2   N   0.222217323359535   0.111114001564734   0.875000000000000   1.0000000
N2   N   0.722218877850486   0.611116266409982   0.875000000000000   1.0000000
N2   N   0.555551284751730   0.111112661333955   0.875000000000000   1.0000000
N2   N   0.888887830782033   0.111114663440643   0.875000000000000   1.0000000
B2   B   0.107755662970732   0.053890997375821   0.375000000000000   1.0000000
B2   B   0.611922036282513   0.540920720920619   0.375000000000000   1.0000000
B2   B   0.444749604062594   0.060109742534854   0.375000000000000   1.0000000
B2   B   0.949066939934025   0.557904124323851   0.375000000000000   1.0000000
B2   B   0.775075044174414   0.055877965176419   0.375000000000000   1.0000000
B2   B   0.111105350320781   0.722222965161411   0.875000000000000   1.0000000
B2   B   0.444441367550886   0.722229759755725   0.875000000000000   1.0000000
B2   B   0.277798023606960   0.222234221214087   0.875000000000000   1.0000000
B2   B   0.777763793011775   0.722203948828112   0.875000000000000   1.0000000
B2   B   0.611102398133328   0.222240489098693   0.875000000000000   1.0000000
B2   B   0.944434297771351   0.222229361327673   0.875000000000000   1.0000000
B2   B   0.280447975741623   0.722956237630975   0.375000000000000   1.0000000
B2   B   0.106910459674238   0.220451466638076   0.375000000000000   1.0000000
B2   B   0.441324217607303   0.225765208588262   0.375000000000000   1.0000000
B2   B   0.610487041519000   0.716224771164809   0.375000000000000   1.0000000
B2   B   0.947390480249252   0.724314070149767   0.375000000000000   1.0000000
B2   B   0.775345181914352   0.224413513926334   0.375000000000000   1.0000000
B2   B   0.111110743921508   0.888888671238865   0.875000000000000   1.0000000
B2   B   0.444442768043212   0.888899407580068   0.875000000000000   1.0000000
B2   B   0.277793130918961   0.388903922359430   0.875000000000000   1.0000000
B2   B   0.611110396459734   0.388898943523691   0.875000000000000   1.0000000
B2   B   0.777766368601395   0.888882685322103   0.875000000000000   1.0000000
B2   B   0.944430553687904   0.388899791710637   0.875000000000000   1.0000000
B2   B   0.112454894577069   0.388452621583081   0.375000000000000   1.0000000
B2   B   0.279695418541436   0.890947593363943   0.375000000000000   1.0000000
B2   B   0.609960767119055   0.888633017504866   0.375000000000000   1.0000000
B2   B   0.942712291974070   0.887712603033766   0.375000000000000   1.0000000
B2   B   0.782784631503509   0.390936185412531   0.375000000000000   1.0000000
B2   B   0.277780837811740   0.555570096588711   0.875000000000000   1.0000000
B2   B   0.111114839080029   0.055557588070878   0.875000000000000   1.0000000
B2   B   0.611104383578616   0.555537807666124   0.875000000000000   1.0000000
B2   B   0.444448584564140   0.055569203806222   0.875000000000000   1.0000000
B2   B   0.944430513757376   0.555554854159499   0.875000000000000   1.0000000
B2   B   0.114513966644183   0.556450655221842   0.375000000000000   1.0000000
B2   B   0.777765758742067   0.055559643882457   0.875000000000000   1.0000000
B2   B   0.277000243647140   0.056671947056817   0.375000000000000   1.0000000
B2   B   0.446693815680073   0.550143111634032   0.375000000000000   1.0000000
B2   B   0.783497799303463   0.560260553770137   0.375000000000000   1.0000000
B2   B   0.609582226820667   0.061558484733630   0.375000000000000   1.0000000
B2   B   0.444451764656424   0.555560320308130   0.875000000000000   1.0000000
B2   B   0.941150182646140   0.054272981344183   0.375000000000000   1.0000000
B2   B   0.277776240167306   0.722233016273316   0.875000000000000   1.0000000
B2   B   0.111113394106898   0.222228754800705   0.875000000000000   1.0000000
B2   B   0.444464058819811   0.222240056740942   0.875000000000000   1.0000000
B2   B   0.611100137953306   0.722210681666625   0.875000000000000   1.0000000
B2   B   0.944432589816197   0.722210131826084   0.875000000000000   1.0000000
B2   B   0.777761610980042   0.222235296651274   0.875000000000000   1.0000000
B2   B   0.114357449968698   0.724017703040378   0.375000000000000   1.0000000
B2   B   0.445628987448773   0.720140857647387   0.375000000000000   1.0000000
B2   B   0.270611109409461   0.219111219143777   0.375000000000000   1.0000000
B2   B   0.776898957688704   0.719919773392345   0.375000000000000   1.0000000
B2   B   0.609315806347603   0.239015486249707   0.375000000000000   1.0000000
B2   B   0.941877425529971   0.222123430591228   0.375000000000000   1.0000000
B2   B   0.111107922409397   0.388900153713692   0.875000000000000   1.0000000
B2   B   0.277781411547402   0.888897280411868   0.875000000000000   1.0000000
B2   B   0.611100383425899   0.888892237023300   0.875000000000000   1.0000000
B2   B   0.444471147425874   0.388903613477026   0.875000000000000   1.0000000
B2   B   0.944437484936902   0.888881758337179   0.875000000000000   1.0000000
B2   B   0.111961066134653   0.889955712769152   0.375000000000000   1.0000000
B2   B   0.777759592681814   0.388900974403177   0.875000000000000   1.0000000
B2   B   0.445324537431564   0.890492592290680   0.375000000000000   1.0000000
B2   B   0.277887512479183   0.385651760193594   0.375000000000000   1.0000000
B2   B   0.280417856371263   0.554558562827694   0.375000000000000   1.0000000
B2   B   0.775509733444684   0.887197816974730   0.375000000000000   1.0000000
B2   B   0.947089398907509   0.389911881174348   0.375000000000000   1.0000000
B2   B   0.111104694061719   0.555563579664751   0.875000000000000   1.0000000
B2   B   0.277790451335537   0.055564112677994   0.875000000000000   1.0000000
B2   B   0.777760309014163   0.555540943355625   0.875000000000000   1.0000000
B2   B   0.611100239301855   0.055566357430975   0.875000000000000   1.0000000
B2   B   0.944437857776379   0.055555248306162   0.875000000000000   1.0000000
B2   B   0.055475319570726   0.111076067771699   0.124977397362051   1.0000000
B2   B   0.555568428168711   0.611016196149491   0.124929741804990   1.0000000
B2   B   0.388903392878047   0.111212000135251   0.124973152128629   1.0000000
B2   B   0.888811652841025   0.611083474589605   0.125022405339586   1.0000000
B2   B   0.722153531454935   0.111145556041037   0.125063097434357   1.0000000
B2   B   0.055519964660632   0.777778525620341   0.625001137854487   1.0000000
B2   B   0.388869584929151   0.777788474111584   0.624997503363402   1.0000000
B2   B   0.222161070909049   0.277741099038442   0.625118841576313   1.0000000
B2   B   0.722177561731302   0.777729691472619   0.624979828977890   1.0000000
B2   B   0.555597790753003   0.277994471971410   0.625013091080872   1.0000000
B2   B   0.888825638200827   0.277791880390454   0.624988927650518   1.0000000
B2   B   0.222200731847698   0.777795057623983   0.124997856059070   1.0000000
B2   B   0.055486816650331   0.277759664767493   0.124987666238798   1.0000000
B2   B   0.388924239199071   0.277837591260903   0.124511099165802   1.0000000
B2   B   0.555521044404303   0.777745450540856   0.125027775246280   1.0000000
B2   B   0.888840076803060   0.777752689394787   0.125005514622000   1.0000000
B2   B   0.722165690842435   0.277859304519712   0.125090428758850   1.0000000
B2   B   0.055502135943230   0.944427522288684   0.625002406725646   1.0000000
B2   B   0.388876476849905   0.944502148249873   0.624978734167578   1.0000000
B2   B   0.222191819402620   0.444428327722013   0.625010702339081   1.0000000
B2   B   0.555564695053604   0.444335876172882   0.625134477551905   1.0000000
B2   B   0.722154123313299   0.944429656825133   0.624977219589713   1.0000000
B2   B   0.888808778945062   0.444445552240547   0.624969204073919   1.0000000
B2   B   0.055509337546755   0.444446872616250   0.125007844132853   1.0000000
B2   B   0.222200980709513   0.944468108786661   0.125000136506880   1.0000000
B2   B   0.555509116239958   0.944477960654530   0.125051465132928   1.0000000
B2   B   0.388928855877439   0.444379583962908   0.124551546776417   1.0000000
B2   B   0.888823895801644   0.944416660501217   0.124995316299998   1.0000000
B2   B   0.722097801453358   0.444418833526612   0.125054478399943   1.0000000
B2   B   0.222199297570231   0.611113189150760   0.625000013034564   1.0000000
B2   B   0.055475319570726   0.111076067771699   0.625022602637949   1.0000000
B2   B   0.555568428168711   0.611016196149491   0.625070258195010   1.0000000
B2   B   0.388903392878047   0.111212000135251   0.625026847871367   1.0000000
B2   B   0.888811652841025   0.611083474589605   0.624977594660416   1.0000000
B2   B   0.055508802998057   0.611111104098068   0.125003724634661   1.0000000
B2   B   0.722153531454935   0.111145556041037   0.624936902565642   1.0000000
B2   B   0.222173102845726   0.111099428748403   0.124968607504378   1.0000000
B2   B   0.388890230700401   0.611081630845210   0.124979172391412   1.0000000
B2   B   0.722161583351039   0.611028252208982   0.124951488879595   1.0000000
B2   B   0.555530614208617   0.111228308611963   0.125174134824877   1.0000000
B2   B   0.388890230700401   0.611081630845210   0.625020827608584   1.0000000
B2   B   0.888812990676400   0.111099317816655   0.124993060463361   1.0000000
B2   B   0.222200731847698   0.777795057623983   0.625002143940934   1.0000000
B2   B   0.055486816650331   0.277759664767493   0.625012333761201   1.0000000
B2   B   0.388924239199071   0.277837591260903   0.625488900834195   1.0000000
B2   B   0.555521044404303   0.777745450540856   0.624972224753727   1.0000000
B2   B   0.888840076803060   0.777752689394787   0.624994485377997   1.0000000
B2   B   0.722165690842435   0.277859304519712   0.624909571241156   1.0000000
B2   B   0.055519964660632   0.777778525620341   0.124998862145517   1.0000000
B2   B   0.388869584929151   0.777788474111584   0.125002496636598   1.0000000
B2   B   0.222161070909049   0.277741099038442   0.124881158423691   1.0000000
B2   B   0.722177561731302   0.777729691472619   0.125020171022113   1.0000000
B2   B   0.555597790753003   0.277994471971410   0.124986908919123   1.0000000
B2   B   0.888825638200827   0.277791880390454   0.125011072349483   1.0000000
B2   B   0.055509337546755   0.444446872616250   0.624992155867147   1.0000000
B2   B   0.222200980709513   0.944468108786661   0.624999863493124   1.0000000
B2   B   0.555509116239958   0.944477960654530   0.624948534867073   1.0000000
B2   B   0.388928855877439   0.444379583962908   0.625448453223579   1.0000000
B2   B   0.888823895801644   0.944416660501217   0.625004683699994   1.0000000
B2   B   0.055502135943230   0.944427522288684   0.124997593274352   1.0000000
B2   B   0.722097801453358   0.444418833526612   0.624945521600061   1.0000000
B2   B   0.388876476849905   0.944502148249873   0.125021265832420   1.0000000
B2   B   0.222191819402620   0.444428327722013   0.124989297660913   1.0000000
B2   B   0.222199297570231   0.611113189150760   0.124999986965439   1.0000000
B2   B   0.555564695053604   0.444335876172882   0.124865522448083   1.0000000
B2   B   0.722154123313299   0.944429656825133   0.125022780410288   1.0000000
B2   B   0.888808778945062   0.444445552240547   0.125030795926082   1.0000000
B2   B   0.055508802998057   0.611111104098068   0.624996275365341   1.0000000
B2   B   0.222173102845726   0.111099428748403   0.625031392495622   1.0000000
B2   B   0.722161583351039   0.611028252208982   0.625048511120411   1.0000000
B2   B   0.555530614208617   0.111228308611963   0.624825865175123   1.0000000
B2   B   0.888812990676400   0.111099317816655   0.625006939536636   1.0000000


