data_1
_audit_creation_method   'vasp2cif'
_cell_length_a    14.93631414619966
_cell_length_b    14.936314146199727
_cell_length_c    13.341276283792837
_cell_angle_alpha    90.0
_cell_angle_beta    90.0
_cell_angle_gamma    119.99999999999984

_symmetry_space_group_name_H-M    'P 1'
loop_
_atom_site_label
_atom_site_type_symbol
_atom_site_fract_x
_atom_site_fract_y
_atom_site_fract_z
_atom_site_occupancy
C2   C   0.427480277582035   0.380406805457682   0.375000000000000   1.0000000
N2   N   0.111114324317345   0.055573639581865   0.125122658063409   1.0000000
N2   N   0.611118098220283   0.555662886194833   0.123964520198211   1.0000000
N2   N   0.444420331852597   0.055565215736613   0.125086083557888   1.0000000
N2   N   0.944434813687219   0.555547722496221   0.124970152848133   1.0000000
N2   N   0.777779674319274   0.055556503826305   0.124982509789067   1.0000000
N2   N   0.111096922148341   0.722215127740832   0.624991465073716   1.0000000
N2   N   0.444420331852597   0.722188449449320   0.624913916442119   1.0000000
N2   N   0.277797345270678   0.222252846045931   0.624486564703934   1.0000000
N2   N   0.777795797567752   0.722267478547882   0.625228453922367   1.0000000
N2   N   0.611129551226384   0.222193088606872   0.625180391106971   1.0000000
N2   N   0.944449087296933   0.222217602748686   0.624960809954909   1.0000000
N2   N   0.277755149650632   0.722199927687372   0.125039759252312   1.0000000
N2   N   0.111113618793042   0.222223476063182   0.125168544415177   1.0000000
N2   N   0.444418157813079   0.222240787541933   0.125394148785204   1.0000000
N2   N   0.611129551226384   0.722269795952841   0.124819608893029   1.0000000
N2   N   0.944434813687219   0.722220424524334   0.124970152848133   1.0000000
N2   N   0.777797622007682   0.222202168154165   0.124981247237335   1.0000000
N2   N   0.111098372818759   0.888894385038809   0.624943974421343   1.0000000
N2   N   0.444410821049128   0.888872077191228   0.625001928625742   1.0000000
N2   N   0.277797345270678   0.388877832558068   0.624486564703934   1.0000000
N2   N   0.611118098220283   0.388788545358771   0.626035479801790   1.0000000
N2   N   0.777797622007682   0.888928787186846   0.625018752762664   1.0000000
N2   N   0.944455495803902   0.388875635003276   0.624978238687455   1.0000000
N2   N   0.111114324317345   0.388874018068808   0.125122658063409   1.0000000
N2   N   0.277755149650632   0.888888555296590   0.125039759252312   1.0000000
N2   N   0.611092788016633   0.888889284048108   0.125023543252682   1.0000000
N2   N   0.444482403580491   0.388907868456907   0.126078937988798   1.0000000
N2   N   0.944455495803902   0.888913194133955   0.125021761312545   1.0000000
N2   N   0.777795797567752   0.388861652353198   0.124771546077632   1.0000000
N2   N   0.277762463782121   0.555524942165856   0.624782318919432   1.0000000
N2   N   0.111114324317345   0.055573639581865   0.624877341936590   1.0000000
N2   N   0.611118098220283   0.555662886194833   0.626035479801790   1.0000000
N2   N   0.444420331852597   0.055565215736613   0.624913916442119   1.0000000
N2   N   0.944434813687219   0.555547722496221   0.625029847151866   1.0000000
N2   N   0.111098372818759   0.555537321113280   0.125056025578657   1.0000000
N2   N   0.777779674319274   0.055556503826305   0.625017490210933   1.0000000
N2   N   0.277762463782121   0.055570854949600   0.125217681080568   1.0000000
N2   N   0.444418157813079   0.555510703604482   0.125394148785204   1.0000000
N2   N   0.777745151055370   0.555539242194357   0.124586982993853   1.0000000
N2   N   0.611092788016633   0.055536837301853   0.125023543252682   1.0000000
N2   N   0.444418157813079   0.555510703604482   0.624605851214797   1.0000000
N2   N   0.944449087296933   0.055564817881589   0.125039190045091   1.0000000
N2   N   0.277755149650632   0.722199927687372   0.624960240747689   1.0000000
N2   N   0.111113618793042   0.222223476063182   0.624831455584824   1.0000000
N2   N   0.444418157813079   0.222240787541933   0.624605851214797   1.0000000
N2   N   0.611129551226384   0.722269795952841   0.625180391106971   1.0000000
N2   N   0.944434813687219   0.722220424524334   0.625029847151866   1.0000000
N2   N   0.777797622007682   0.222202168154165   0.625018752762664   1.0000000
N2   N   0.111096922148341   0.722215127740832   0.125008534926284   1.0000000
N2   N   0.444420331852597   0.722188449449320   0.125086083557888   1.0000000
N2   N   0.277797345270678   0.222252846045931   0.125513435296065   1.0000000
N2   N   0.777795797567752   0.722267478547882   0.124771546077632   1.0000000
N2   N   0.611129551226384   0.222193088606872   0.124819608893029   1.0000000
N2   N   0.944449087296933   0.222217602748686   0.125039190045091   1.0000000
N2   N   0.111114324317345   0.388874018068808   0.624877341936590   1.0000000
N2   N   0.277755149650632   0.888888555296590   0.624960240747689   1.0000000
N2   N   0.611092788016633   0.888889284048108   0.624976456747318   1.0000000
N2   N   0.444482403580491   0.388907868456907   0.623921062011201   1.0000000
N2   N   0.944455495803902   0.888913194133955   0.624978238687455   1.0000000
N2   N   0.111098372818759   0.888894385038809   0.125056025578657   1.0000000
N2   N   0.777795797567752   0.388861652353198   0.625228453922367   1.0000000
N2   N   0.444410821049128   0.888872077191228   0.124998071374258   1.0000000
N2   N   0.277797345270678   0.388877832558068   0.125513435296065   1.0000000
N2   N   0.277762463782121   0.555524942165856   0.125217681080568   1.0000000
N2   N   0.611118098220283   0.388788545358771   0.123964520198211   1.0000000
N2   N   0.777797622007682   0.888928787186846   0.124981247237335   1.0000000
N2   N   0.944455495803902   0.388875635003276   0.125021761312545   1.0000000
N2   N   0.111098372818759   0.555537321113280   0.624943974421343   1.0000000
N2   N   0.277762463782121   0.055570854949600   0.624782318919432   1.0000000
N2   N   0.777745151055370   0.555539242194357   0.625413017006139   1.0000000
N2   N   0.611092788016633   0.055536837301853   0.624976456747318   1.0000000
N2   N   0.944449087296933   0.055564817881589   0.624960809954909   1.0000000
N2   N   0.052335152061897   0.109074902495664   0.375000000000000   1.0000000
N2   N   0.556774944916686   0.598806663561463   0.375000000000000   1.0000000
N2   N   0.390657207769809   0.116455666266266   0.375000000000000   1.0000000
N2   N   0.895058691550692   0.614196012442020   0.375000000000000   1.0000000
N2   N   0.721016780121775   0.111736654418605   0.375000000000000   1.0000000
N2   N   0.055554681351905   0.777778913874597   0.875000000000000   1.0000000
N2   N   0.388885314551778   0.777779399423176   0.875000000000000   1.0000000
N2   N   0.222219805018478   0.277776569175907   0.875000000000000   1.0000000
N2   N   0.722218727679249   0.777778755940418   0.875000000000000   1.0000000
N2   N   0.555538480960183   0.277758010072437   0.875000000000000   1.0000000
N2   N   0.888889537827717   0.277777443964148   0.875000000000000   1.0000000
N2   N   0.225557916040277   0.779445624686809   0.375000000000000   1.0000000
N2   N   0.052335152061897   0.276593582899568   0.375000000000000   1.0000000
N2   N   0.383153454919394   0.278802801298182   0.375000000000000   1.0000000
N2   N   0.556238255812401   0.772962354792960   0.375000000000000   1.0000000
N2   N   0.890352084687008   0.777422210776892   0.375000000000000   1.0000000
N2   N   0.721633075681770   0.280728014237043   0.375000000000000   1.0000000
N2   N   0.055556301004305   0.944447430011115   0.875000000000000   1.0000000
N2   N   0.388885314551778   0.944439248461945   0.875000000000000   1.0000000
N2   N   0.222223145892817   0.444444752296314   0.875000000000000   1.0000000
N2   N   0.555543423898693   0.444438378616011   0.875000000000000   1.0000000
N2   N   0.722216775531551   0.944443215686524   0.875000000000000   1.0000000
N2   N   0.888890293772490   0.444441872622362   0.875000000000000   1.0000000
N2   N   0.055351448949327   0.444732969354809   0.375000000000000   1.0000000
N2   N   0.224699456342413   0.946835663620573   0.375000000000000   1.0000000
N2   N   0.556192354350753   0.944762843842043   0.375000000000000   1.0000000
N2   N   0.383153454919394   0.437683986954547   0.375000000000000   1.0000000
N2   N   0.887119245520018   0.942402391621437   0.375000000000000   1.0000000
N2   N   0.726159903449002   0.449508048620433   0.375000000000000   1.0000000
N2   N   0.222220263725327   0.611110330869136   0.875000000000000   1.0000000
N2   N   0.055555084180297   0.111109863093187   0.875000000000000   1.0000000
N2   N   0.555538480960183   0.611113804221082   0.875000000000000   1.0000000
N2   N   0.388884968766442   0.111102615428202   0.875000000000000   1.0000000
N2   N   0.888888025813745   0.611110679573543   0.875000000000000   1.0000000
N2   N   0.059334455603072   0.612752884120903   0.375000000000000   1.0000000
N2   N   0.722216775531551   0.111106893178362   0.875000000000000   1.0000000
N2   N   0.219976544533875   0.110175331999174   0.375000000000000   1.0000000
N2   N   0.390657207769809   0.607534874836893   0.375000000000000   1.0000000
N2   N   0.726159903449002   0.609985188161905   0.375000000000000   1.0000000
N2   N   0.556238255812401   0.116609234352770   0.375000000000000   1.0000000
N2   N   0.388884968766442   0.611115686671576   0.875000000000000   1.0000000
N2   N   0.886412322301131   0.109872827817236   0.375000000000000   1.0000000
N2   N   0.222219725086231   0.777776529209787   0.875000000000000   1.0000000
N2   N   0.055555084180297   0.277778554420453   0.875000000000000   1.0000000
N2   N   0.388886216156491   0.277776643931036   0.875000000000000   1.0000000
N2   N   0.555545873080975   0.777780352929118   0.875000000000000   1.0000000
N2   N   0.888890293772490   0.777781754483464   0.875000000000000   1.0000000
N2   N   0.722218727679249   0.277773305072166   0.875000000000000   1.0000000
N2   N   0.059334455603072   0.779914904815504   0.375000000000000   1.0000000
N2   N   0.391172647067951   0.777408016079212   0.375000000000000   1.0000000
N2   N   0.216697450259316   0.275015391796326   0.375000000000000   1.0000000
N2   N   0.721633075681770   0.774238394778064   0.375000000000000   1.0000000
N2   N   0.556774944916686   0.291301614688558   0.375000000000000   1.0000000
N2   N   0.887119245520018   0.278050187231916   0.375000000000000   1.0000000
N2   N   0.055556301004305   0.444442204326510   0.875000000000000   1.0000000
N2   N   0.222220263725327   0.944443266189527   0.875000000000000   1.0000000
N2   N   0.555547519148787   0.944440426241054   0.875000000000000   1.0000000
N2   N   0.388886216156491   0.444442905558791   0.875000000000000   1.0000000
N2   N   0.888889537827717   0.944445427196911   0.875000000000000   1.0000000
N2   N   0.055351448949327   0.943951812927847   0.375000000000000   1.0000000
N2   N   0.722217133109713   0.444439745442442   0.875000000000000   1.0000000
N2   N   0.391172647067951   0.947097964322074   0.375000000000000   1.0000000
N2   N   0.219976544533875   0.443134545868038   0.375000000000000   1.0000000
N2   N   0.224699456342413   0.611197126055175   0.375000000000000   1.0000000
N2   N   0.721016780121775   0.942613459036506   0.375000000000000   1.0000000
N2   N   0.890352084687008   0.446263207243450   0.375000000000000   1.0000000
N2   N   0.055554681351905   0.611109100810644   0.875000000000000   1.0000000
N2   N   0.222223145892817   0.111111726929839   0.875000000000000   1.0000000
N2   N   0.722217133109713   0.611110721000607   0.875000000000000   1.0000000
N2   N   0.555545873080975   0.111098853485185   0.875000000000000   1.0000000
N2   N   0.888887228856431   0.111110281094884   0.875000000000000   1.0000000
B2   B   0.108737176098322   0.054218989326097   0.375000000000000   1.0000000
B2   B   0.615613337828616   0.538228091023219   0.375000000000000   1.0000000
B2   B   0.445721747914103   0.059246244615046   0.375000000000000   1.0000000
B2   B   0.948447287330506   0.557321497026059   0.375000000000000   1.0000000
B2   B   0.775379642922109   0.054356488127719   0.375000000000000   1.0000000
B2   B   0.111098435567377   0.722215884450356   0.875000000000000   1.0000000
B2   B   0.444454778361622   0.722235324420478   0.875000000000000   1.0000000
B2   B   0.277791421429691   0.222224335798200   0.875000000000000   1.0000000
B2   B   0.777760541974052   0.722203654647735   0.875000000000000   1.0000000
B2   B   0.611109277208263   0.222225198265617   0.875000000000000   1.0000000
B2   B   0.944423995073128   0.222217140712069   0.875000000000000   1.0000000
B2   B   0.280282801174285   0.722746850036501   0.375000000000000   1.0000000
B2   B   0.105814011538880   0.219573672436104   0.375000000000000   1.0000000
B2   B   0.446700478512118   0.228313383225277   0.375000000000000   1.0000000
B2   B   0.610580897956547   0.713437817561675   0.375000000000000   1.0000000
B2   B   0.948447287330506   0.724459123637783   0.375000000000000   1.0000000
B2   B   0.775776187035989   0.223326607610911   0.375000000000000   1.0000000
B2   B   0.111099603089354   0.888875941521490   0.875000000000000   1.0000000
B2   B   0.444448266292762   0.888890799813041   0.875000000000000   1.0000000
B2   B   0.277791421429691   0.388900418964821   0.875000000000000   1.0000000
B2   B   0.611113261448871   0.388892092001415   0.875000000000000   1.0000000
B2   B   0.777763101133628   0.888872408905757   0.875000000000000   1.0000000
B2   B   0.944425359251760   0.388888207023148   0.875000000000000   1.0000000
B2   B   0.108737176098322   0.387851520105561   0.375000000000000   1.0000000
B2   B   0.280282801174285   0.890869284471113   0.375000000000000   1.0000000
B2   B   0.610333651615770   0.886028566713739   0.375000000000000   1.0000000
B2   B   0.944044800573548   0.887947015245966   0.375000000000000   1.0000000
B2   B   0.778787721934499   0.391936386802277   0.375000000000000   1.0000000
B2   B   0.277786531484948   0.555570860399222   0.875000000000000   1.0000000
B2   B   0.111100919952404   0.055542478180778   0.875000000000000   1.0000000
B2   B   0.611113261448871   0.555554502780784   0.875000000000000   1.0000000
B2   B   0.444454778361622   0.055552787274479   0.875000000000000   1.0000000
B2   B   0.944422922109832   0.555549817677724   0.875000000000000   1.0000000
B2   B   0.113331923220348   0.556087592001372   0.375000000000000   1.0000000
B2   B   0.777760773522897   0.055547053428113   0.875000000000000   1.0000000
B2   B   0.278943300811107   0.057851602146030   0.375000000000000   1.0000000
B2   B   0.446700478512118   0.551720428620177   0.375000000000000   1.0000000
B2   B   0.785311425980196   0.559322379656766   0.375000000000000   1.0000000
B2   B   0.610333651615770   0.057638418235361   0.375000000000000   1.0000000
B2   B   0.444469106211236   0.555576346912838   0.875000000000000   1.0000000
B2   B   0.941247320585130   0.053407816163437   0.375000000000000   1.0000000
B2   B   0.277780663390560   0.722229018507288   0.875000000000000   1.0000000
B2   B   0.111098084952985   0.222215709143154   0.875000000000000   1.0000000
B2   B   0.444469106211236   0.222226092631734   0.875000000000000   1.0000000
B2   B   0.611109277208263   0.722217412275967   0.875000000000000   1.0000000
B2   B   0.944422922109832   0.722206437765442   0.875000000000000   1.0000000
B2   B   0.777763101133628   0.222224025561200   0.875000000000000   1.0000000
B2   B   0.114522696706933   0.723928015020127   0.375000000000000   1.0000000
B2   B   0.445721747914103   0.719808836632392   0.375000000000000   1.0000000
B2   B   0.270870486481338   0.219342949942337   0.375000000000000   1.0000000
B2   B   0.778787721934499   0.720184668465544   0.375000000000000   1.0000000
B2   B   0.610580897956547   0.230476413728201   0.375000000000000   1.0000000
B2   B   0.941247320585130   0.221172837755022   0.375000000000000   1.0000000
B2   B   0.111100919952404   0.388891775104955   0.875000000000000   1.0000000
B2   B   0.277780663390560   0.888884978216602   0.875000000000000   1.0000000
B2   B   0.611105925698766   0.888885449514974   0.875000000000000   1.0000000
B2   B   0.444483761856536   0.388908547594936   0.875000000000000   1.0000000
B2   B   0.944425359251760   0.888870485561947   0.875000000000000   1.0000000
B2   B   0.113331923220348   0.890577664552305   0.375000000000000   1.0000000
B2   B   0.777760541974052   0.388890220659646   0.875000000000000   1.0000000
B2   B   0.445676441253816   0.889504887293573   0.375000000000000   1.0000000
B2   B   0.270870486481338   0.384860869872330   0.375000000000000   1.0000000
B2   B   0.278943300811107   0.554425031998419   0.375000000000000   1.0000000
B2   B   0.615613337828616   0.410718580138725   0.375000000000000   1.0000000
B2   B   0.775776187035989   0.885782912758407   0.375000000000000   1.0000000
B2   B   0.944044800573548   0.389431118660912   0.375000000000000   1.0000000
B2   B   0.111099603089354   0.555556994901193   0.875000000000000   1.0000000
B2   B   0.277786531484948   0.055549004419062   0.875000000000000   1.0000000
B2   B   0.777756358603431   0.555544845968387   0.875000000000000   1.0000000
B2   B   0.611105925698766   0.055553809517128   0.875000000000000   1.0000000
B2   B   0.944423995073128   0.055540187694395   0.875000000000000   1.0000000
B2   B   0.055505111304502   0.111080040705871   0.125022184007556   1.0000000
B2   B   0.555684022584678   0.611136145200092   0.124824297829590   1.0000000
B2   B   0.388905344428182   0.111141405134622   0.125138509525037   1.0000000
B2   B   0.888805536940017   0.611069435136681   0.124933264771090   1.0000000
B2   B   0.722217583977726   0.111113229170602   0.125004227340867   1.0000000
B2   B   0.055492691819868   0.777737005419430   0.624985433436118   1.0000000
B2   B   0.388881769093347   0.777766842957037   0.624990635313044   1.0000000
B2   B   0.222196891346748   0.277765112340045   0.624855688729621   1.0000000
B2   B   0.722230132105099   0.777786539465563   0.625086194607057   1.0000000
B2   B   0.555684022584678   0.277881210717921   0.625175702170410   1.0000000
B2   B   0.888861144022792   0.277767818168709   0.624992551259644   1.0000000
B2   B   0.222184680854606   0.777759007093975   0.125005431703812   1.0000000
B2   B   0.055505111304502   0.277758403931966   0.125022184007556   1.0000000
B2   B   0.388986743652361   0.277846309525685   0.125379394805142   1.0000000
B2   B   0.555597310836149   0.777778582406884   0.125009783073821   1.0000000
B2   B   0.888849208784635   0.777753391140655   0.124980054645675   1.0000000
B2   B   0.722230132105099   0.277776925972872   0.124913805392943   1.0000000
B2   B   0.055505444863071   0.944405409901173   0.624975950313126   1.0000000
B2   B   0.388881769093347   0.944448259469645   0.624990635313044   1.0000000
B2   B   0.222201228979084   0.444444279967702   0.624883377164803   1.0000000
B2   B   0.555803095418420   0.444568214375878   0.624319707514323   1.0000000
B2   B   0.722217583977726   0.944437688140452   0.624995772659133   1.0000000
B2   B   0.888849208784635   0.444429150977316   0.625019945354325   1.0000000
B2   B   0.055505444863071   0.444433368295226   0.125024049686874   1.0000000
B2   B   0.222182584163483   0.944413573702187   0.125033529087396   1.0000000
B2   B   0.555556550685330   0.944444942009329   0.125015415218609   1.0000000
B2   B   0.388986743652361   0.444473767460012   0.125379394805142   1.0000000
B2   B   0.888861144022792   0.944426659187419   0.125007448740356   1.0000000
B2   B   0.722196619851344   0.444419384265005   0.124628096406504   1.0000000
B2   B   0.222182584163483   0.611102343794637   0.624966470912604   1.0000000
B2   B   0.055505111304502   0.111080040705871   0.624977815992445   1.0000000
B2   B   0.555684022584678   0.611136145200092   0.625175702170410   1.0000000
B2   B   0.388905344428182   0.111141405134622   0.624861490474964   1.0000000
B2   B   0.888805536940017   0.611069435136681   0.625066735228911   1.0000000
B2   B   0.055492691819868   0.611089019733772   0.125014566563882   1.0000000
B2   B   0.722217583977726   0.111113229170602   0.624995772659133   1.0000000
B2   B   0.222201228979084   0.111090282344724   0.125116622835197   1.0000000
B2   B   0.388905344428182   0.611097272626902   0.125138509525037   1.0000000
B2   B   0.722196619851344   0.611110568919667   0.124628096406504   1.0000000
B2   B   0.555597310836149   0.111152061762600   0.125009783073821   1.0000000
B2   B   0.388905344428182   0.611097272626902   0.624861490474964   1.0000000
B2   B   0.888862894964558   0.111098114148947   0.124998184977591   1.0000000
B2   B   0.222184680854606   0.777759007093975   0.624994568296188   1.0000000
B2   B   0.055505111304502   0.277758403931966   0.624977815992445   1.0000000
B2   B   0.388986743652361   0.277846309525685   0.624620605194858   1.0000000
B2   B   0.555597310836149   0.777778582406884   0.624990216926178   1.0000000
B2   B   0.888849208784635   0.777753391140655   0.625019945354325   1.0000000
B2   B   0.722230132105099   0.277776925972872   0.625086194607057   1.0000000
B2   B   0.055492691819868   0.777737005419430   0.125014566563882   1.0000000
B2   B   0.388881769093347   0.777766842957037   0.125009364686956   1.0000000
B2   B   0.222196891346748   0.277765112340045   0.125144311270379   1.0000000
B2   B   0.722230132105099   0.777786539465563   0.124913805392943   1.0000000
B2   B   0.555684022584678   0.277881210717921   0.124824297829590   1.0000000
B2   B   0.888861144022792   0.277767818168709   0.125007448740356   1.0000000
B2   B   0.055505444863071   0.444433368295226   0.624975950313126   1.0000000
B2   B   0.222182584163483   0.944413573702187   0.624966470912604   1.0000000
B2   B   0.555556550685330   0.944444942009329   0.624984584781392   1.0000000
B2   B   0.388986743652361   0.444473767460012   0.624620605194858   1.0000000
B2   B   0.888861144022792   0.944426659187419   0.624992551259644   1.0000000
B2   B   0.055505444863071   0.944405409901173   0.125024049686874   1.0000000
B2   B   0.722196619851344   0.444419384265005   0.625371903593496   1.0000000
B2   B   0.388881769093347   0.944448259469645   0.125009364686956   1.0000000
B2   B   0.222201228979084   0.444444279967702   0.125116622835197   1.0000000
B2   B   0.222182584163483   0.611102343794637   0.125033529087396   1.0000000
B2   B   0.555803095418420   0.444568214375878   0.125680292485676   1.0000000
B2   B   0.722217583977726   0.944437688140452   0.125004227340867   1.0000000
B2   B   0.888849208784635   0.444429150977316   0.124980054645675   1.0000000
B2   B   0.055492691819868   0.611089019733772   0.624985433436118   1.0000000
B2   B   0.222201228979084   0.111090282344724   0.624883377164803   1.0000000
B2   B   0.722196619851344   0.611110568919667   0.625371903593496   1.0000000
B2   B   0.555597310836149   0.111152061762600   0.624990216926178   1.0000000
B2   B   0.888862894964558   0.111098114148947   0.625001815022409   1.0000000


