data_1
_audit_creation_method   'vasp2cif'
_cell_length_a    14.93631414619966
_cell_length_b    14.936314146199727
_cell_length_c    13.341276283792837
_cell_angle_alpha    90.0
_cell_angle_beta    90.0
_cell_angle_gamma    119.99999999999984

_symmetry_space_group_name_H-M    'P 1'
loop_
_atom_site_label
_atom_site_type_symbol
_atom_site_fract_x
_atom_site_fract_y
_atom_site_fract_z
_atom_site_occupancy
As2   As   0.475113173423281   0.404223253378304   0.375000000000000   1.0000000
N2   N   0.111100025521071   0.055523413216266   0.125201063044952   1.0000000
N2   N   0.611080738911337   0.555545225260012   0.126636430736914   1.0000000
N2   N   0.444423321824606   0.055523646512511   0.125309753271458   1.0000000
N2   N   0.944448940891561   0.555567776570931   0.125321453920554   1.0000000
N2   N   0.777763042096111   0.055548187714723   0.125142082196789   1.0000000
N2   N   0.111112797863596   0.722223065598463   0.624822989220351   1.0000000
N2   N   0.444423321824606   0.722233008645430   0.624690246728542   1.0000000
N2   N   0.277747784255814   0.222186564010818   0.624682177850571   1.0000000
N2   N   0.777761173444906   0.722194940314882   0.624332408060946   1.0000000
N2   N   0.611077482207066   0.222204532785251   0.624380716714020   1.0000000
N2   N   0.944440799092680   0.222233155568369   0.624838128694520   1.0000000
N2   N   0.277767425089652   0.722230123942607   0.125181788033386   1.0000000
N2   N   0.111109876563479   0.222221604948404   0.125228355426913   1.0000000
N2   N   0.444421239636428   0.222189249622164   0.125702642319046   1.0000000
N2   N   0.611077482207066   0.722206282755146   0.125619283285981   1.0000000
N2   N   0.944448940891561   0.722214497653965   0.125321453920554   1.0000000
N2   N   0.777760384030189   0.222228666163065   0.125223954269884   1.0000000
N2   N   0.111108005111781   0.888866428763006   0.624824310127399   1.0000000
N2   N   0.444425489741520   0.888879411537425   0.624832183370735   1.0000000
N2   N   0.277747784255814   0.388894553578324   0.624682177850571   1.0000000
N2   N   0.611080738911337   0.388868846984654   0.623363569263087   1.0000000
N2   N   0.777760384030189   0.888865051200454   0.624776045730116   1.0000000
N2   N   0.944440697840897   0.388910252636572   0.624797662608346   1.0000000
N2   N   0.111100025521071   0.388909945638134   0.125201063044952   1.0000000
N2   N   0.277767425089652   0.888870634480375   0.125181788033386   1.0000000
N2   N   0.611086764882321   0.888880773123885   0.125179097881591   1.0000000
N2   N   0.444352558094810   0.388842945714069   0.125886146960103   1.0000000
N2   N   0.944440697840897   0.888863778537654   0.125202337391654   1.0000000
N2   N   0.777761173444906   0.388899566463352   0.125667591939053   1.0000000
N2   N   0.277763763946609   0.555576033426258   0.624715766364900   1.0000000
N2   N   0.111100025521071   0.055523413216266   0.624798936955049   1.0000000
N2   N   0.611080738911337   0.555545225260012   0.623363569263087   1.0000000
N2   N   0.444423321824606   0.055523646512511   0.624690246728542   1.0000000
N2   N   0.944448940891561   0.555567776570931   0.624678546079446   1.0000000
N2   N   0.111108005111781   0.555574909682104   0.125175689872601   1.0000000
N2   N   0.777763042096111   0.055548187714723   0.624857917803211   1.0000000
N2   N   0.277763763946609   0.055521063853686   0.125284233635100   1.0000000
N2   N   0.444421239636428   0.555565323347600   0.125702642319046   1.0000000
N2   N   0.777769390169939   0.555551361751637   0.125962292735325   1.0000000
N2   N   0.611086764882321   0.055539325091764   0.125179097881591   1.0000000
N2   N   0.444421239636428   0.555565323347600   0.624297357680954   1.0000000
N2   N   0.944440799092680   0.055540976857647   0.125161871305480   1.0000000
N2   N   0.277767425089652   0.722230123942607   0.624818211966613   1.0000000
N2   N   0.111109876563479   0.222221604948404   0.624771644573088   1.0000000
N2   N   0.444421239636428   0.222189249622164   0.624297357680954   1.0000000
N2   N   0.611077482207066   0.722206282755146   0.624380716714020   1.0000000
N2   N   0.944448940891561   0.722214497653965   0.624678546079446   1.0000000
N2   N   0.777760384030189   0.222228666163065   0.624776045730116   1.0000000
N2   N   0.111112797863596   0.722223065598463   0.125177010779649   1.0000000
N2   N   0.444423321824606   0.722233008645430   0.125309753271458   1.0000000
N2   N   0.277747784255814   0.222186564010818   0.125317822149429   1.0000000
N2   N   0.777761173444906   0.722194940314882   0.125667591939053   1.0000000
N2   N   0.611077482207066   0.222204532785251   0.125619283285981   1.0000000
N2   N   0.944440799092680   0.222233155568369   0.125161871305480   1.0000000
N2   N   0.111100025521071   0.388909945638134   0.624798936955049   1.0000000
N2   N   0.277767425089652   0.888870634480375   0.624818211966613   1.0000000
N2   N   0.611086764882321   0.888880773123885   0.624820902118408   1.0000000
N2   N   0.444352558094810   0.388842945714069   0.624113853039897   1.0000000
N2   N   0.944440697840897   0.888863778537654   0.624797662608346   1.0000000
N2   N   0.111108005111781   0.888866428763006   0.125175689872601   1.0000000
N2   N   0.777761173444906   0.388899566463352   0.624332408060946   1.0000000
N2   N   0.444425489741520   0.888879411537425   0.125167816629265   1.0000000
N2   N   0.277747784255814   0.388894553578324   0.125317822149429   1.0000000
N2   N   0.277763763946609   0.555576033426258   0.125284233635100   1.0000000
N2   N   0.611080738911337   0.388868846984654   0.126636430736914   1.0000000
N2   N   0.777760384030189   0.888865051200454   0.125223954269884   1.0000000
N2   N   0.944440697840897   0.388910252636572   0.125202337391654   1.0000000
N2   N   0.111108005111781   0.555574909682104   0.624824310127399   1.0000000
N2   N   0.277763763946609   0.055521063853686   0.624715766364900   1.0000000
N2   N   0.777769390169939   0.555551361751637   0.624037707264674   1.0000000
N2   N   0.611086764882321   0.055539325091764   0.624820902118408   1.0000000
N2   N   0.944440799092680   0.055540976857647   0.624838128694520   1.0000000
N2   N   0.056072766473559   0.111508898568053   0.375000000000000   1.0000000
N2   N   0.553173300217116   0.613651886258539   0.375000000000000   1.0000000
N2   N   0.386948079140365   0.106078958177373   0.375000000000000   1.0000000
N2   N   0.887402983514646   0.610368158423994   0.375000000000000   1.0000000
N2   N   0.722337107945676   0.110734297711022   0.375000000000000   1.0000000
N2   N   0.055554822065627   0.777781576472411   0.875000000000000   1.0000000
N2   N   0.388903913082230   0.777782750623287   0.875000000000000   1.0000000
N2   N   0.222227675906064   0.277780504619700   0.875000000000000   1.0000000
N2   N   0.722231711776159   0.777784956490799   0.875000000000000   1.0000000
N2   N   0.555566794471626   0.277787538155002   0.875000000000000   1.0000000
N2   N   0.888898419379468   0.277779096377021   0.875000000000000   1.0000000
N2   N   0.220418909246608   0.776876121289973   0.375000000000000   1.0000000
N2   N   0.056072766473559   0.277897201238842   0.375000000000000   1.0000000
N2   N   0.388372225044585   0.270102138286879   0.375000000000000   1.0000000
N2   N   0.554838510599282   0.779294120938136   0.375000000000000   1.0000000
N2   N   0.888225004607572   0.777739851809125   0.375000000000000   1.0000000
N2   N   0.722045612561516   0.276674460718560   0.375000000000000   1.0000000
N2   N   0.055558194036662   0.944451210575554   0.875000000000000   1.0000000
N2   N   0.388903913082230   0.944454495792279   0.875000000000000   1.0000000
N2   N   0.222226975030430   0.444441708637631   0.875000000000000   1.0000000
N2   N   0.555564887623580   0.444449110478454   0.875000000000000   1.0000000
N2   N   0.722234065719201   0.944451674077877   0.875000000000000   1.0000000
N2   N   0.888892528371574   0.444440965791278   0.875000000000000   1.0000000
N2   N   0.054927980471950   0.444112511105065   0.375000000000000   1.0000000
N2   N   0.220418455471394   0.942696818920423   0.375000000000000   1.0000000
N2   N   0.555046868625559   0.944190100979444   0.375000000000000   1.0000000
N2   N   0.388372225044585   0.451603420091042   0.375000000000000   1.0000000
N2   N   0.889019913704112   0.944935838638847   0.375000000000000   1.0000000
N2   N   0.721498058457351   0.444473212989848   0.375000000000000   1.0000000
N2   N   0.222228392249943   0.611107968024020   0.875000000000000   1.0000000
N2   N   0.055560675616864   0.111115433509456   0.875000000000000   1.0000000
N2   N   0.555566794471626   0.611112589649960   0.875000000000000   1.0000000
N2   N   0.388902203123545   0.111124528149305   0.875000000000000   1.0000000
N2   N   0.888888207378833   0.611110770356088   0.875000000000000   1.0000000
N2   N   0.053894238402276   0.610382099025328   0.375000000000000   1.0000000
N2   N   0.722234065719201   0.111115724974661   0.875000000000000   1.0000000
N2   N   0.221929365444606   0.110246748985602   0.375000000000000   1.0000000
N2   N   0.386948079140365   0.614202454296335   0.375000000000000   1.0000000
N2   N   0.721498058457351   0.610358178800839   0.375000000000000   1.0000000
N2   N   0.554838510599282   0.108877722994482   0.375000000000000   1.0000000
N2   N   0.388902203123545   0.611111008307582   0.875000000000000   1.0000000
N2   N   0.889298354125137   0.111315843729240   0.375000000000000   1.0000000
N2   N   0.222227703057520   0.777780518195428   0.875000000000000   1.0000000
N2   N   0.055560675616864   0.277778575440744   0.875000000000000   1.0000000
N2   N   0.388899264580008   0.277785838680458   0.875000000000000   1.0000000
N2   N   0.555569697423781   0.777783612588163   0.875000000000000   1.0000000
N2   N   0.888892528371574   0.777784895913632   0.875000000000000   1.0000000
N2   N   0.722231711776159   0.277780088618696   0.875000000000000   1.0000000
N2   N   0.053894238402276   0.776845472710283   0.375000000000000   1.0000000
N2   N   0.387493062722559   0.778251919220897   0.375000000000000   1.0000000
N2   N   0.223656362454192   0.278494847893764   0.375000000000000   1.0000000
N2   N   0.722045612561516   0.778704485176291   0.375000000000000   1.0000000
N2   N   0.553173300217116   0.272854747291914   0.375000000000000   1.0000000
N2   N   0.889019913704112   0.277417408398602   0.375000000000000   1.0000000
N2   N   0.055558194036662   0.444440316794435   0.875000000000000   1.0000000
N2   N   0.222228392249943   0.944453757559259   0.875000000000000   1.0000000
N2   N   0.555570043593173   0.944451688463250   0.875000000000000   1.0000000
N2   N   0.388899264580008   0.444446759232887   0.875000000000000   1.0000000
N2   N   0.888898419379468   0.944452656335781   0.875000000000000   1.0000000
N2   N   0.054927980471950   0.944148802700213   0.375000000000000   1.0000000
N2   N   0.722225351212842   0.444444910118201   0.875000000000000   1.0000000
N2   N   0.387493062722559   0.942574476834998   0.375000000000000   1.0000000
N2   N   0.221929365444606   0.445015949792339   0.375000000000000   1.0000000
N2   N   0.220418455471394   0.611054969884307   0.375000000000000   1.0000000
N2   N   0.722337107945676   0.944936143567988   0.375000000000000   1.0000000
N2   N   0.888225004607572   0.443818486131783   0.375000000000000   1.0000000
N2   N   0.055554822065627   0.611106578926553   0.875000000000000   1.0000000
N2   N   0.222226975030430   0.111118599726135   0.875000000000000   1.0000000
N2   N   0.722225351212842   0.611113774427978   0.875000000000000   1.0000000
N2   N   0.555569697423781   0.111119418168954   0.875000000000000   1.0000000
N2   N   0.888899077338679   0.111116205336011   0.875000000000000   1.0000000
B2   B   0.110442660562730   0.055093049472189   0.375000000000000   1.0000000
B2   B   0.618486962769294   0.575172222395382   0.375000000000000   1.0000000
B2   B   0.443452971665558   0.051962115753400   0.375000000000000   1.0000000
B2   B   0.943826159590634   0.554956481664092   0.375000000000000   1.0000000
B2   B   0.778462598384666   0.055897965859001   0.375000000000000   1.0000000
B2   B   0.111129241749318   0.722231287541323   0.875000000000000   1.0000000
B2   B   0.444445953350064   0.722260788039458   0.875000000000000   1.0000000
B2   B   0.277704789853584   0.222173903888125   0.875000000000000   1.0000000
B2   B   0.777838944190117   0.722305736911031   0.875000000000000   1.0000000
B2   B   0.611142783598917   0.222173698951440   0.875000000000000   1.0000000
B2   B   0.944449593962241   0.222208800286858   0.875000000000000   1.0000000
B2   B   0.276173518586126   0.722050945925524   0.375000000000000   1.0000000
B2   B   0.111329700250970   0.222331516792149   0.375000000000000   1.0000000
B2   B   0.441346080909328   0.213590476656626   0.375000000000000   1.0000000
B2   B   0.612032299372887   0.727619112485478   0.375000000000000   1.0000000
B2   B   0.943826159590634   0.722203011259879   0.375000000000000   1.0000000
B2   B   0.778560091618015   0.221146290305174   0.375000000000000   1.0000000
B2   B   0.111115647019571   0.888899429998781   0.875000000000000   1.0000000
B2   B   0.444457351847293   0.888895342590311   0.875000000000000   1.0000000
B2   B   0.277704789853584   0.388864219298787   0.875000000000000   1.0000000
B2   B   0.611142112834187   0.388866799025535   0.875000000000000   1.0000000
B2   B   0.777821573047716   0.888958998461529   0.875000000000000   1.0000000
B2   B   0.944473573537738   0.388868680096637   0.875000000000000   1.0000000
B2   B   0.110442660562730   0.388682944423870   0.375000000000000   1.0000000
B2   B   0.276173518586126   0.887455905993932   0.375000000000000   1.0000000
B2   B   0.611512544512741   0.890432487607067   0.375000000000000   1.0000000
B2   B   0.944386829064831   0.889631550684353   0.375000000000000   1.0000000
B2   B   0.779069830636350   0.386909710442159   0.375000000000000   1.0000000
B2   B   0.277744559308054   0.555557340422607   0.875000000000000   1.0000000
B2   B   0.111080527469673   0.055545480083971   0.875000000000000   1.0000000
B2   B   0.611142112834187   0.555608647141981   0.875000000000000   1.0000000
B2   B   0.444445953350064   0.055518498643941   0.875000000000000   1.0000000
B2   B   0.944495125804918   0.555561535040664   0.875000000000000   1.0000000
B2   B   0.109609550215295   0.555065059513855   0.375000000000000   1.0000000
B2   B   0.777810061550808   0.055571697442072   0.875000000000000   1.0000000
B2   B   0.275539743889592   0.052663869974308   0.375000000000000   1.0000000
B2   B   0.441346080909328   0.561088937586037   0.375000000000000   1.0000000
B2   B   0.778784681357656   0.556059007345496   0.375000000000000   1.0000000
B2   B   0.611512544512741   0.054413390239003   0.375000000000000   1.0000000
B2   B   0.444416681307036   0.555584581304109   0.875000000000000   1.0000000
B2   B   0.944924934206580   0.056167894262656   0.375000000000000   1.0000000
B2   B   0.277776545643312   0.722230219200986   0.875000000000000   1.0000000
B2   B   0.111061182929789   0.222197258131559   0.875000000000000   1.0000000
B2   B   0.444416681307036   0.222165433336263   0.875000000000000   1.0000000
B2   B   0.611142783598917   0.722302417980806   0.875000000000000   1.0000000
B2   B   0.944495125804918   0.722266924097590   0.875000000000000   1.0000000
B2   B   0.777821573047716   0.222195907919516   0.875000000000000   1.0000000
B2   B   0.109616763010576   0.721475048171952   0.375000000000000   1.0000000
B2   B   0.443452971665558   0.724824189245493   0.375000000000000   1.0000000
B2   B   0.276108920165826   0.220479258245251   0.375000000000000   1.0000000
B2   B   0.779069830636350   0.725493453527521   0.375000000000000   1.0000000
B2   B   0.612032299372887   0.217746520220738   0.375000000000000   1.0000000
B2   B   0.944924934206580   0.222090373277259   0.375000000000000   1.0000000
B2   B   0.111080527469673   0.388868380719031   0.875000000000000   1.0000000
B2   B   0.277776545643312   0.888879659775655   0.875000000000000   1.0000000
B2   B   0.611142562842349   0.888933964698266   0.875000000000000   1.0000000
B2   B   0.444394582078246   0.388863957705787   0.875000000000000   1.0000000
B2   B   0.944473573537738   0.888938226774430   0.875000000000000   1.0000000
B2   B   0.109609550215295   0.887877824034769   0.375000000000000   1.0000000
B2   B   0.777838944190117   0.388866540612416   0.875000000000000   1.0000000
B2   B   0.443782490689556   0.888557912011443   0.375000000000000   1.0000000
B2   B   0.276108920165826   0.388962995253904   0.375000000000000   1.0000000
B2   B   0.275539743889592   0.556209207248620   0.375000000000000   1.0000000
B2   B   0.618486962769294   0.376648073707239   0.375000000000000   1.0000000
B2   B   0.778560091618015   0.890747134646170   0.375000000000000   1.0000000
B2   B   0.944386829064831   0.388088611713808   0.375000000000000   1.0000000
B2   B   0.111115647019571   0.555549550354118   0.875000000000000   1.0000000
B2   B   0.277744559308054   0.055520552218783   0.875000000000000   1.0000000
B2   B   0.777846685514725   0.555590009424030   0.875000000000000   1.0000000
B2   B   0.611142562842349   0.055541931477410   0.875000000000000   1.0000000
B2   B   0.944449593962241   0.055574127008718   0.875000000000000   1.0000000
B2   B   0.055501739483475   0.111057470239787   0.124771286005356   1.0000000
B2   B   0.555463922170721   0.611296812134333   0.124828946571386   1.0000000
B2   B   0.388720903107842   0.110806223685262   0.124761813842345   1.0000000
B2   B   0.889161858888059   0.611247596110701   0.124793660664494   1.0000000
B2   B   0.722221421139847   0.111049731526265   0.124714271665323   1.0000000
B2   B   0.055684710807024   0.777824597248412   0.625244239121996   1.0000000
B2   B   0.388794743010180   0.777822505285796   0.625244185641947   1.0000000
B2   B   0.222028039366779   0.277680686350057   0.625339200394700   1.0000000
B2   B   0.722299561468211   0.777958952354643   0.625241105569624   1.0000000
B2   B   0.555463922170721   0.277500443369724   0.625171053428615   1.0000000
B2   B   0.888947425119536   0.277775098630936   0.625263695557872   1.0000000
B2   B   0.222218760421407   0.777776046877371   0.124773369994900   1.0000000
B2   B   0.055501739483475   0.277777602577023   0.124771286005356   1.0000000
B2   B   0.388591338765412   0.277439985941523   0.124566114650407   1.0000000
B2   B   0.555476885499384   0.777917055376838   0.124730719060313   1.0000000
B2   B   0.889082473572287   0.777914209078919   0.124761836896430   1.0000000
B2   B   0.722299561468211   0.277673942446903   0.124758894430376   1.0000000
B2   B   0.055584177054591   0.944414905182041   0.625246025087451   1.0000000
B2   B   0.388794743010180   0.944305571057719   0.625244185641947   1.0000000
B2   B   0.222066783376618   0.444497470579558   0.625266365216864   1.0000000
B2   B   0.555532978738033   0.444433156035681   0.624925728411021   1.0000000
B2   B   0.722221421139847   0.944505022946918   0.625285728334676   1.0000000
B2   B   0.889082473572287   0.444501597826703   0.625238163103569   1.0000000
B2   B   0.055584177054591   0.444502605205879   0.124753974912548   1.0000000
B2   B   0.222170524354685   0.944313452490879   0.124770231565891   1.0000000
B2   B   0.555487575701033   0.944410454517182   0.124712540020275   1.0000000
B2   B   0.388591338765412   0.444484686157224   0.124566114650407   1.0000000
B2   B   0.888947425119536   0.944505659821936   0.124736304442128   1.0000000
B2   B   0.722444322302724   0.444484555956288   0.124979472938151   1.0000000
B2   B   0.222170524354685   0.611190405197141   0.625229768434110   1.0000000
B2   B   0.055501739483475   0.111057470239787   0.625228713994645   1.0000000
B2   B   0.555463922170721   0.611296812134333   0.625171053428615   1.0000000
B2   B   0.388720903107842   0.110806223685262   0.625238186157654   1.0000000
B2   B   0.889161858888059   0.611247596110701   0.625206339335506   1.0000000
B2   B   0.055684710807024   0.611193446891948   0.124755760878005   1.0000000
B2   B   0.722221421139847   0.111049731526265   0.625285728334676   1.0000000
B2   B   0.222066783376618   0.110902646130397   0.124733634783136   1.0000000
B2   B   0.388720903107842   0.611248012755923   0.124761813842345   1.0000000
B2   B   0.722444322302724   0.611293099679771   0.124979472938151   1.0000000
B2   B   0.555476885499384   0.110893163455882   0.124730719060313   1.0000000
B2   B   0.388720903107842   0.611248012755923   0.625238186157654   1.0000000
B2   B   0.888895344973972   0.111114339153658   0.124760953322480   1.0000000
B2   B   0.222218760421407   0.777776046877371   0.625226630005100   1.0000000
B2   B   0.055501739483475   0.277777602577023   0.625228713994645   1.0000000
B2   B   0.388591338765412   0.277439985941523   0.625433885349593   1.0000000
B2   B   0.555476885499384   0.777917055376838   0.625269280939688   1.0000000
B2   B   0.889082473572287   0.777914209078919   0.625238163103569   1.0000000
B2   B   0.722299561468211   0.277673942446903   0.625241105569624   1.0000000
B2   B   0.055684710807024   0.777824597248412   0.124755760878005   1.0000000
B2   B   0.388794743010180   0.777822505285796   0.124755814358053   1.0000000
B2   B   0.222028039366779   0.277680686350057   0.124660799605302   1.0000000
B2   B   0.722299561468211   0.777958952354643   0.124758894430376   1.0000000
B2   B   0.555463922170721   0.277500443369724   0.124828946571386   1.0000000
B2   B   0.888947425119536   0.277775098630936   0.124736304442128   1.0000000
B2   B   0.055584177054591   0.444502605205879   0.625246025087451   1.0000000
B2   B   0.222170524354685   0.944313452490879   0.625229768434110   1.0000000
B2   B   0.555487575701033   0.944410454517182   0.625287459979724   1.0000000
B2   B   0.388591338765412   0.444484686157224   0.625433885349593   1.0000000
B2   B   0.888947425119536   0.944505659821936   0.625263695557872   1.0000000
B2   B   0.055584177054591   0.944414905182041   0.124753974912548   1.0000000
B2   B   0.722444322302724   0.444484555956288   0.625020527061849   1.0000000
B2   B   0.388794743010180   0.944305571057719   0.124755814358053   1.0000000
B2   B   0.222066783376618   0.444497470579558   0.124733634783136   1.0000000
B2   B   0.222170524354685   0.611190405197141   0.124770231565891   1.0000000
B2   B   0.555532978738033   0.444433156035681   0.125074271588978   1.0000000
B2   B   0.722221421139847   0.944505022946918   0.124714271665323   1.0000000
B2   B   0.889082473572287   0.444501597826703   0.124761836896430   1.0000000
B2   B   0.055684710807024   0.611193446891948   0.625244239121996   1.0000000
B2   B   0.222066783376618   0.110902646130397   0.625266365216864   1.0000000
B2   B   0.722444322302724   0.611293099679771   0.625020527061849   1.0000000
B2   B   0.555476885499384   0.110893163455882   0.625269280939688   1.0000000
B2   B   0.888895344973972   0.111114339153658   0.625239046677520   1.0000000


