data_1
_audit_creation_method   'vasp2cif'
_cell_length_a    17.52789999999977
_cell_length_b    17.52789999999977
_cell_length_c    15.0
_cell_angle_alpha    90.0
_cell_angle_beta    90.0
_cell_angle_gamma    119.99999999999916

_symmetry_space_group_name_H-M    'P 1'
loop_
_atom_site_label
_atom_site_type_symbol
_atom_site_fract_x
_atom_site_fract_y
_atom_site_fract_z
_atom_site_occupancy
In2   In   0.439607232101634   0.505518818674817   0.110946658315714   1.0000000
B2   B   0.905258058433430   0.952554479720655   0.111006438011675   1.0000000
B2   B   0.905785069477044   0.095734300992339   0.111034249648378   1.0000000
B2   B   0.905936188767077   0.238682441229041   0.111087224792680   1.0000000
B2   B   0.905785069477044   0.381479462175701   0.111034249648378   1.0000000
B2   B   0.905258058433430   0.524133983960777   0.111006438011675   1.0000000
B2   B   0.904227930630971   0.666576255017307   0.111047734100277   1.0000000
B2   B   0.904227930630971   0.809082080861668   0.111047734100277   1.0000000
B2   B   0.046921142192006   0.951307113839372   0.111021937818327   1.0000000
B2   B   0.047299487853385   0.094027995061766   0.111006384564232   1.0000000
B2   B   0.048028646105112   0.237835881868128   0.111007556618552   1.0000000
B2   B   0.048028646105112   0.381623169483983   0.111007556618552   1.0000000
B2   B   0.047299487853385   0.524701898039614   0.111006384564232   1.0000000
B2   B   0.046921142192006   0.667046145156631   0.111021937818327   1.0000000
B2   B   0.046830857672950   0.809131487238478   0.111003550627939   1.0000000
B2   B   0.189621093298527   0.951273091721272   0.111023959441163   1.0000000
B2   B   0.189456391542759   0.092763686944269   0.111050709956592   1.0000000
B2   B   0.188819769838305   0.234453762393605   0.111019872455963   1.0000000
B2   B   0.189911653711591   0.380671029479295   0.110990424438671   1.0000000
B2   B   0.188819769838305   0.525796412692701   0.111019872455963   1.0000000
B2   B   0.189456391542759   0.668123109846485   0.111050709956592   1.0000000
B2   B   0.189621093298527   0.809780118381260   0.111023959441163   1.0000000
B2   B   0.332882761446864   0.952157439124932   0.111035929354014   1.0000000
B2   B   0.332801321873054   0.092697553520824   0.111079881768164   1.0000000
B2   B   0.332277398746988   0.232256143116071   0.111055669823137   1.0000000
B2   B   0.327292362510568   0.365425969963021   0.111040848184409   1.0000000
B2   B   0.327292362510568   0.533296797794547   0.111040848184409   1.0000000
B2   B   0.332277398746988   0.671451660877917   0.111055669823137   1.0000000
B2   B   0.332801321873054   0.811534173599230   0.111079881768164   1.0000000
B2   B   0.476631408763215   0.953935445403891   0.111007282029688   1.0000000
B2   B   0.476631408763215   0.094126368606324   0.111007282029688   1.0000000
B2   B   0.476944102924814   0.234147351373734   0.111049434220294   1.0000000
B2   B   0.479648905451698   0.374737755383353   0.111075481813717   1.0000000
B2   B   0.479648905451698   0.676341555315345   0.111075481813717   1.0000000
B2   B   0.476944102924814   0.814227156798088   0.111049434220294   1.0000000
B2   B   0.620523528490584   0.954485000104658   0.110997902242312   1.0000000
B2   B   0.620283839480342   0.095856266585666   0.110990107589738   1.0000000
B2   B   0.620523528490584   0.237468933632926   0.110997902242312   1.0000000
B2   B   0.621285372554019   0.379617552059305   0.111036647987824   1.0000000
B2   B   0.620627274302316   0.522174587680892   0.110993205184506   1.0000000
B2   B   0.620627274302316   0.669883091869419   0.110993205184506   1.0000000
B2   B   0.621285372554019   0.813098225741714   0.111036647987824   1.0000000
B2   B   0.763502550768134   0.953979572329158   0.110993956158190   1.0000000
B2   B   0.763374830382766   0.096278891029581   0.111038714462736   1.0000000
B2   B   0.763374830382766   0.238524633044183   0.111038714462736   1.0000000
B2   B   0.763502550768134   0.380953383685975   0.110993956158190   1.0000000
B2   B   0.763198788591487   0.523592027886464   0.111034281215134   1.0000000
B2   B   0.761035758921667   0.666233082084831   0.111073759395777   1.0000000
B2   B   0.763198788591487   0.811037165953023   0.111034281215134   1.0000000
N2   N   0.952125350281633   0.904405904584851   0.111017603307520   1.0000000
N2   N   0.952938178542734   0.047797913421064   0.110986071639360   1.0000000
N2   N   0.953749608686229   0.191187610514788   0.111034244130004   1.0000000
N2   N   0.953749608686229   0.333988980289438   0.111034244130004   1.0000000
N2   N   0.952938178542734   0.476567247239668   0.110986071639360   1.0000000
N2   N   0.952125350281633   0.619148139371776   0.111017603307520   1.0000000
N2   N   0.951871170723794   0.761649932199398   0.111020379379161   1.0000000
N2   N   0.094689542181125   0.904180345814625   0.110991491918447   1.0000000
N2   N   0.094860256055513   0.046668391498526   0.111005763103218   1.0000000
N2   N   0.095196266427045   0.189706971318557   0.110981532994393   1.0000000
N2   N   0.096463136004774   0.333945914839388   0.110976832397587   1.0000000
N2   N   0.095196266427045   0.476917988782489   0.110981532994393   1.0000000
N2   N   0.094860256055513   0.619620558231990   0.111005763103218   1.0000000
N2   N   0.094689542181125   0.761939601597508   0.110991491918447   1.0000000
N2   N   0.237691701641968   0.904561053436482   0.111005604125401   1.0000000
N2   N   0.237667805578879   0.046332983515781   0.111046605387277   1.0000000
N2   N   0.237582628782314   0.188416794956344   0.111032220319677   1.0000000
N2   N   0.237309891892243   0.331706464403592   0.110997343084746   1.0000000
N2   N   0.237309891892243   0.477032121162646   0.110997343084746   1.0000000
N2   N   0.237582628782314   0.620594527500966   0.111032220319677   1.0000000
N2   N   0.237667805578879   0.762763515738101   0.111046605387277   1.0000000
N2   N   0.381163355367323   0.905850619361078   0.111027941982913   1.0000000
N2   N   0.381163355367323   0.046741429681248   0.111027941982913   1.0000000
N2   N   0.381151559792941   0.187510329082596   0.111056813155947   1.0000000
N2   N   0.381414191846963   0.328271435431430   0.111050617186807   1.0000000
N2   N   0.381414191846963   0.624571450090530   0.111050617186807   1.0000000
N2   N   0.381151559792941   0.765069924385348   0.111056813155947   1.0000000
N2   N   0.524984480827094   0.907850026086672   0.110986817588145   1.0000000
N2   N   0.524888151900381   0.048157567009694   0.110974916837178   1.0000000
N2   N   0.524984480827094   0.188563148415426   0.110986817588145   1.0000000
N2   N   0.525565350393252   0.328176644595627   0.111068180762562   1.0000000
N2   N   0.527566554148520   0.466598783396291   0.110962221306573   1.0000000
N2   N   0.527566554148520   0.632396464427225   0.110962221306573   1.0000000
N2   N   0.525565350393252   0.768817399472630   0.111068180762562   1.0000000
N2   N   0.668496873023544   0.907434092402276   0.110984563049158   1.0000000
N2   N   0.668282131550827   0.049043738037985   0.110984951820028   1.0000000
N2   N   0.668282131550827   0.190665375631850   0.110984951820028   1.0000000
N2   N   0.668496873023544   0.332491474296269   0.110984563049158   1.0000000
N2   N   0.668551695899352   0.474986657994139   0.111015089278416   1.0000000
N2   N   0.665273718819065   0.618351206247531   0.110982902028087   1.0000000
N2   N   0.668551695899352   0.764993731580216   0.111015089278416   1.0000000
N2   N   0.810604226432825   0.905987959542691   0.110990708241996   1.0000000
N2   N   0.811070859773121   0.048921723405623   0.111005730590627   1.0000000
N2   N   0.811197331405405   0.191312156761706   0.111067654340296   1.0000000
N2   N   0.811070859773121   0.333576118485503   0.111005730590627   1.0000000
N2   N   0.810604226432825   0.476044960564135   0.110990708241996   1.0000000
N2   N   0.809132383728097   0.618800525056710   0.111045446474787   1.0000000
N2   N   0.809132383728097   0.761760552346391   0.111045446474787   1.0000000


