data_1
_audit_creation_method   'vasp2cif'
_cell_length_a    17.52789999999977
_cell_length_b    17.52789999999977
_cell_length_c    15.0
_cell_angle_alpha    90.0
_cell_angle_beta    90.0
_cell_angle_gamma    119.99999999999916

_symmetry_space_group_name_H-M    'P 1'
loop_
_atom_site_label
_atom_site_type_symbol
_atom_site_fract_x
_atom_site_fract_y
_atom_site_fract_z
_atom_site_occupancy
Se2   Se   0.523796080622643   0.492121722216607   0.111073697958404   1.0000000
B2   B   0.907195765162362   0.953790904877903   0.110968626907575   1.0000000
B2   B   0.903308834203336   0.093625450101534   0.111052556260399   1.0000000
B2   B   0.902432256855539   0.235927372899742   0.111040273941274   1.0000000
B2   B   0.903317392297618   0.379485110208687   0.110950672254868   1.0000000
B2   B   0.906748867878047   0.523939769131620   0.110947333057318   1.0000000
B2   B   0.910951048820366   0.669016045841553   0.110942354232411   1.0000000
B2   B   0.911749010037344   0.813819208987213   0.110940071707890   1.0000000
B2   B   0.050595845333116   0.954411514549328   0.110917170766414   1.0000000
B2   B   0.047584866562346   0.095424199699629   0.110937916053338   1.0000000
B2   B   0.044592569384279   0.236113213493096   0.110946665125365   1.0000000
B2   B   0.044128453638477   0.379041646844567   0.110911788257570   1.0000000
B2   B   0.045820921704473   0.523288195779597   0.110934230352317   1.0000000
B2   B   0.049431615577015   0.667714843350578   0.111001688417139   1.0000000
B2   B   0.051357850002708   0.811665195406570   0.111014637274296   1.0000000
B2   B   0.192562973294407   0.953854561091669   0.110980726347586   1.0000000
B2   B   0.190537859340028   0.095476877786157   0.111019508204046   1.0000000
B2   B   0.188102391634483   0.237600675035971   0.111055525650913   1.0000000
B2   B   0.184930360257098   0.378271951190884   0.110974492453251   1.0000000
B2   B   0.184626623850403   0.522824178278285   0.110917367377387   1.0000000
B2   B   0.188624014154925   0.667010768594311   0.111036993992903   1.0000000
B2   B   0.191975513122970   0.810670557317791   0.111012871054667   1.0000000
B2   B   0.334372607138488   0.952812468604899   0.111014171904263   1.0000000
B2   B   0.334263513527769   0.096112737268684   0.111082871746931   1.0000000
B2   B   0.329951410593167   0.236505130353845   0.111124330757059   1.0000000
B2   B   0.328687927641639   0.380076604531943   0.111208103667038   1.0000000
B2   B   0.321105008288453   0.521989530972466   0.111138160301505   1.0000000
B2   B   0.327666090873731   0.666594940348417   0.111001354798665   1.0000000
B2   B   0.333209712932431   0.809554457156151   0.111030457208657   1.0000000
B2   B   0.476135087779090   0.949705949364339   0.110968036634523   1.0000000
B2   B   0.476601032895002   0.093898237890243   0.111039962884867   1.0000000
B2   B   0.477010748365087   0.237165473354009   0.111076684759863   1.0000000
B2   B   0.467411972517040   0.369396760551217   0.111095913958615   1.0000000
B2   B   0.458754225830365   0.550724646483925   0.111512047575157   1.0000000
B2   B   0.464796242597274   0.654707681931733   0.111283580009693   1.0000000
B2   B   0.474822959001366   0.804028109126998   0.111025364107930   1.0000000
B2   B   0.617829593853830   0.948767502040123   0.111032006126672   1.0000000
B2   B   0.618384893825763   0.092894068789097   0.111011590653911   1.0000000
B2   B   0.619084550151545   0.236810424255911   0.110979227224976   1.0000000
B2   B   0.619918698505677   0.380448163665585   0.111014897857298   1.0000000
B2   B   0.642212431572382   0.537221390680684   0.111190410171085   1.0000000
B2   B   0.635227298546128   0.672399220354003   0.111123741662388   1.0000000
B2   B   0.617910535995562   0.804655010912102   0.111098433300001   1.0000000
B2   B   0.761168403969275   0.950264779551903   0.111085822910444   1.0000000
B2   B   0.760307655269430   0.092719258952173   0.111116021588448   1.0000000
B2   B   0.760721203922518   0.236091057813781   0.111026454619524   1.0000000
B2   B   0.762310252641668   0.380047565200185   0.110933556366928   1.0000000
B2   B   0.768623134842690   0.525410762313489   0.110934575019427   1.0000000
B2   B   0.776683123458854   0.674472448132915   0.111002709060155   1.0000000
B2   B   0.768009596587657   0.812550285317296   0.111029926616876   1.0000000
N2   N   0.956335838133779   0.907763691756417   0.110907246319030   1.0000000
N2   N   0.952688045213669   0.047971781756721   0.110959067454095   1.0000000
N2   N   0.949811443403408   0.188418306012771   0.111005720325857   1.0000000
N2   N   0.949647900888982   0.331120988492986   0.110947971534374   1.0000000
N2   N   0.951703757772208   0.474893191612617   0.110922289014706   1.0000000
N2   N   0.955456535913803   0.619520398134373   0.110948468502953   1.0000000
N2   N   0.957215839625069   0.764334129569253   0.110965116918966   1.0000000
N2   N   0.097900369810132   0.906575806666350   0.110943286748915   1.0000000
N2   N   0.096040531820197   0.048626490030981   0.110903611708780   1.0000000
N2   N   0.093295806938250   0.189885776120063   0.110941361642462   1.0000000
N2   N   0.090779087674386   0.330918728453740   0.110897723683232   1.0000000
N2   N   0.090966101949247   0.474415373261096   0.110880159356276   1.0000000
N2   N   0.094469311548264   0.618743276565728   0.110986538928193   1.0000000
N2   N   0.097422182054496   0.762998868151808   0.111004885371200   1.0000000
N2   N   0.239544799535989   0.905665751398667   0.110974934337404   1.0000000
N2   N   0.239128936199688   0.048648989675304   0.111008760684338   1.0000000
N2   N   0.235762693496753   0.189761906832025   0.111083822489953   1.0000000
N2   N   0.233760937080787   0.332488730405801   0.111071162853384   1.0000000
N2   N   0.229136793741317   0.473491642688309   0.110928716054349   1.0000000
N2   N   0.233533953334415   0.618153801909745   0.110968540870276   1.0000000
N2   N   0.238232658305493   0.762185319550671   0.111030999166318   1.0000000
N2   N   0.381257355877209   0.904254186249015   0.110985840952138   1.0000000
N2   N   0.381608713028818   0.047718228040632   0.111044311609526   1.0000000
N2   N   0.380854723887975   0.190996851002502   0.111093529587155   1.0000000
N2   N   0.373907703659701   0.330747382491786   0.111108991396146   1.0000000
N2   N   0.371425992921533   0.478411006379989   0.111370824901395   1.0000000
N2   N   0.371391465417926   0.617273598702963   0.111047403860607   1.0000000
N2   N   0.379593294217071   0.760822892749309   0.110992926143851   1.0000000
N2   N   0.522732800328148   0.900126236565758   0.110955592565380   1.0000000
N2   N   0.523509280381247   0.045141235165188   0.110972839261721   1.0000000
N2   N   0.524136814514058   0.188966544947708   0.111018225838936   1.0000000
N2   N   0.524949716249653   0.331809339392187   0.111034985018778   1.0000000
N2   N   0.520746038969142   0.752073717866574   0.111135272507759   1.0000000
N2   N   0.665019006568641   0.900418827718394   0.111053173743677   1.0000000
N2   N   0.665229063446249   0.044301753965015   0.111037337038603   1.0000000
N2   N   0.665912603066415   0.188340385497044   0.110980321662036   1.0000000
N2   N   0.667149811454204   0.332541389813234   0.110941715266076   1.0000000
N2   N   0.674411649873491   0.478079114145287   0.111003511381780   1.0000000
N2   N   0.684918187579388   0.629476703380005   0.111183719298770   1.0000000
N2   N   0.672476660134752   0.763904151624665   0.111061717161897   1.0000000
N2   N   0.812196403848896   0.906224563201709   0.111020288514921   1.0000000
N2   N   0.807967090540218   0.045280778184791   0.111094684963115   1.0000000
N2   N   0.807593555168195   0.187955748059217   0.111078765338769   1.0000000
N2   N   0.808517371772130   0.331497204723519   0.110952628230494   1.0000000
N2   N   0.812566390004790   0.475728873448367   0.110904418592220   1.0000000
N2   N   0.817571118766191   0.621500634383911   0.110899978382826   1.0000000
N2   N   0.818246004143691   0.767742650839547   0.110933185354092   1.0000000


