data_1
_audit_creation_method   'vasp2cif'
_cell_length_a    17.52789999999977
_cell_length_b    17.52789999999977
_cell_length_c    15.0
_cell_angle_alpha    90.0
_cell_angle_beta    90.0
_cell_angle_gamma    119.99999999999916

_symmetry_space_group_name_H-M    'P 1'
loop_
_atom_site_label
_atom_site_type_symbol
_atom_site_fract_x
_atom_site_fract_y
_atom_site_fract_z
_atom_site_occupancy
B2   B   0.905840538066947   0.953298867028288   0.111175314731724   1.0000000
B2   B   0.904571619534153   0.095656976736890   0.111199796259243   1.0000000
B2   B   0.904109135390826   0.238432997089184   0.111070126043927   1.0000000
B2   B   0.904020955721542   0.381164959056207   0.110626542263418   1.0000000
B2   B   0.904575376832369   0.523880990909923   0.109624566130925   1.0000000
B2   B   0.906256066864550   0.667022333834630   0.109265797130405   1.0000000
B2   B   0.907210537555642   0.810989410788721   0.110676649254849   1.0000000
B2   B   0.048167457473404   0.951817091090170   0.111056461088538   1.0000000
B2   B   0.046961056102724   0.094363299543609   0.110979978748503   1.0000000
B2   B   0.046692454255314   0.237537807345746   0.110489505459043   1.0000000
B2   B   0.047123382526713   0.380539828320430   0.110505954924179   1.0000000
B2   B   0.048094904016651   0.523209428909567   0.110794097737994   1.0000000
B2   B   0.048748980541902   0.665994953085772   0.110560715005775   1.0000000
B2   B   0.048801861282399   0.808998063874569   0.110863648135236   1.0000000
B2   B   0.190783120598496   0.950924502198475   0.111091763531832   1.0000000
B2   B   0.189048659597951   0.092701859850003   0.110724486711192   1.0000000
B2   B   0.188142849845484   0.235410182054871   0.109364739404789   1.0000000
B2   B   0.189493472052916   0.379431650300262   0.107499999796424   1.0000000
B2   B   0.191804604987737   0.522396822263694   0.109541422847904   1.0000000
B2   B   0.191982988072056   0.665287608155062   0.110739035056618   1.0000000
B2   B   0.191514503511911   0.808231203012603   0.110951039908990   1.0000000
B2   B   0.333778921264312   0.950939824135752   0.111063765176638   1.0000000
B2   B   0.332734963330388   0.093273043348546   0.112484257147067   1.0000000
B2   B   0.329445144577043   0.233104515615281   0.112625728934830   1.0000000
B2   B   0.329338538408884   0.376559502267988   0.105380499407715   1.0000000
B2   B   0.336333246736629   0.520419849844735   0.104143753572352   1.0000000
B2   B   0.335671264802151   0.664318093244241   0.110906327717899   1.0000000
B2   B   0.334550600030184   0.807869940165844   0.111174335018106   1.0000000
B2   B   0.476680736847122   0.951815291450131   0.110973054843008   1.0000000
B2   B   0.475957152875196   0.094991283264271   0.111652022677354   1.0000000
B2   B   0.474764924734053   0.237865402785559   0.115200786503706   1.0000000
B2   B   0.467429646237420   0.375580185184241   0.126134624739940   1.0000000
B2   B   0.479577428323999   0.664374129354449   0.116150676306205   1.0000000
B2   B   0.477585391746757   0.808456611632749   0.112183412701896   1.0000000
B2   B   0.619524201379583   0.953087090304578   0.111379767217691   1.0000000
B2   B   0.618822687555060   0.095959240239225   0.110998663266152   1.0000000
B2   B   0.618140047115673   0.239251227891380   0.111862257871124   1.0000000
B2   B   0.616805410471315   0.382996181772754   0.110812463815677   1.0000000
B2   B   0.622083539847644   0.532051399013284   0.106625114856485   1.0000000
B2   B   0.624060840084958   0.671623690109065   0.115208393452868   1.0000000
B2   B   0.620730415999198   0.810971555696035   0.112864914511846   1.0000000
B2   B   0.762654294232824   0.953631140560482   0.111340627381523   1.0000000
B2   B   0.761705820623774   0.096072225074082   0.111155317261897   1.0000000
B2   B   0.761150867156829   0.238894818311749   0.110844243142317   1.0000000
B2   B   0.760579579087441   0.381782858703815   0.109642695029962   1.0000000
B2   B   0.761169857084219   0.524957840127485   0.105577680525350   1.0000000
B2   B   0.766579617563934   0.670635395163217   0.108361362317176   1.0000000
B2   B   0.764870771060430   0.812306633155956   0.110845216045867   1.0000000
N2   N   0.953665209852332   0.905637114151496   0.111137467959637   1.0000000
N2   N   0.952286668108272   0.047973741205659   0.111232848798565   1.0000000
N2   N   0.951618318129327   0.190625045585854   0.111088839335167   1.0000000
N2   N   0.951691318691360   0.333508388002194   0.110963488474745   1.0000000
N2   N   0.952369019165495   0.476249783882423   0.110581464757139   1.0000000
N2   N   0.953439684881232   0.619012788242898   0.109788786980829   1.0000000
N2   N   0.953948807313630   0.762273032450636   0.110429987504496   1.0000000
N2   N   0.095827476601343   0.904001234509686   0.111031323196258   1.0000000
N2   N   0.094449221337939   0.046360050168268   0.110857971275976   1.0000000
N2   N   0.093469489909090   0.188993934484131   0.110541779916197   1.0000000
N2   N   0.094153050790837   0.332525850164146   0.109707216553424   1.0000000
N2   N   0.095819791820517   0.475614459970536   0.110556041494469   1.0000000
N2   N   0.096397996962452   0.618335603298526   0.110796065339713   1.0000000
N2   N   0.096341773105451   0.761152879978440   0.110881288545720   1.0000000
N2   N   0.238638598889324   0.903409715322042   0.110949592071641   1.0000000
N2   N   0.237587878839577   0.045803703731195   0.111258808513050   1.0000000
N2   N   0.235045175310070   0.186870908322561   0.109959086311427   1.0000000
N2   N   0.234586893182360   0.329731434950141   0.106833346680389   1.0000000
N2   N   0.239179435237766   0.474536875867848   0.107144578343743   1.0000000
N2   N   0.239806515625993   0.617688303675017   0.110204826436316   1.0000000
N2   N   0.239249637863899   0.760586512282948   0.110894109690449   1.0000000
N2   N   0.381532256831129   0.903431279718355   0.110904586032497   1.0000000
N2   N   0.380812881703122   0.046226543683233   0.111636842420737   1.0000000
N2   N   0.379464679133740   0.188107219883122   0.114535819353641   1.0000000
N2   N   0.374632653161406   0.326547226495691   0.114580541498341   1.0000000
N2   N   0.379318606907113   0.469177665441542   0.097127420617078   1.0000000
N2   N   0.383601533233772   0.616531180307845   0.110557032423550   1.0000000
N2   N   0.382280415192071   0.760199206284021   0.111786624200732   1.0000000
N2   N   0.524414859243180   0.904334207990615   0.111251749012595   1.0000000
N2   N   0.523704616362565   0.047453099046720   0.110930208698086   1.0000000
N2   N   0.522911831166958   0.190609296887494   0.112551549304719   1.0000000
N2   N   0.521122429999920   0.333891878868592   0.118848158935471   1.0000000
N2   N   0.531363127674162   0.622089253261898   0.122660010804047   1.0000000
N2   N   0.525594736157437   0.761334739967637   0.113839581380013   1.0000000
N2   N   0.667643348012462   0.906219507338463   0.111817902415226   1.0000000
N2   N   0.666596556653083   0.048461555149366   0.110991427160670   1.0000000
N2   N   0.665918518236431   0.191436352932215   0.111156141191394   1.0000000
N2   N   0.664961000990651   0.334863056554468   0.110600697148712   1.0000000
N2   N   0.664927156781097   0.478578666682594   0.103487130091118   1.0000000
N2   N   0.673425166333402   0.625745715036871   0.108991311944408   1.0000000
N2   N   0.670553267400940   0.766077617550536   0.111944915779844   1.0000000
N2   N   0.811246315818025   0.906926542333174   0.111091764239383   1.0000000
N2   N   0.809584850780979   0.048654692611002   0.111165364535203   1.0000000
N2   N   0.808902510308890   0.191237604586639   0.111037602346435   1.0000000
N2   N   0.808526091213913   0.334090599756379   0.110376615452367   1.0000000
N2   N   0.808839682679206   0.476963376702216   0.108262652080022   1.0000000
N2   N   0.811444773234349   0.620377048039245   0.107122465737582   1.0000000
N2   N   0.813106440121246   0.765165018097910   0.110207375558993   1.0000000
P2   P   0.501219952957896   0.499571742157883   0.126239836163485   1.0000000


