data_1
_audit_creation_method   'vasp2cif'
_cell_length_a    17.52789999999977
_cell_length_b    17.52789999999977
_cell_length_c    15.0
_cell_angle_alpha    90.0
_cell_angle_beta    90.0
_cell_angle_gamma    119.99999999999916

_symmetry_space_group_name_H-M    'P 1'
loop_
_atom_site_label
_atom_site_type_symbol
_atom_site_fract_x
_atom_site_fract_y
_atom_site_fract_z
_atom_site_occupancy
Al2   Al   0.523804809690098   0.476196493797261   0.110977149413436   1.0000000
B2   B   0.905310409286557   0.953143104582473   0.111027349030685   1.0000000
B2   B   0.904650839599952   0.095349849893530   0.111046679689665   1.0000000
B2   B   0.904645122527960   0.237861744144425   0.111031245328086   1.0000000
B2   B   0.905306661507971   0.380745559694674   0.111026960455639   1.0000000
B2   B   0.908096874410319   0.524400542708257   0.111044495455055   1.0000000
B2   B   0.908184063217739   0.668379688220675   0.111030097705175   1.0000000
B2   B   0.908097325304880   0.812264918410946   0.111038327209499   1.0000000
B2   B   0.047773573292815   0.952228514373857   0.111010993090254   1.0000000
B2   B   0.046858440574866   0.094691239314756   0.111036714304376   1.0000000
B2   B   0.046708907725673   0.237633957709129   0.111022422603512   1.0000000
B2   B   0.046868601760210   0.380727730286381   0.111028374212260   1.0000000
B2   B   0.047772659213614   0.524112533247354   0.111022220512119   1.0000000
B2   B   0.048775176365062   0.667294481393114   0.111027613775271   1.0000000
B2   B   0.048781579068319   0.810044489381617   0.111030393397513   1.0000000
B2   B   0.189956357836849   0.951218408623454   0.111018858907542   1.0000000
B2   B   0.187737232748951   0.091904722246205   0.111042989763234   1.0000000
B2   B   0.188451068504655   0.236412026480082   0.111030374540249   1.0000000
B2   B   0.188451173396885   0.380619351982062   0.111026934590143   1.0000000
B2   B   0.187738040735681   0.524392257792677   0.111047584788366   1.0000000
B2   B   0.189950416703901   0.667294052883896   0.111029587279368   1.0000000
B2   B   0.190474138351675   0.809527612789331   0.111029133024374   1.0000000
B2   B   0.332707522527485   0.951226654607140   0.111024502492903   1.0000000
B2   B   0.331622393581462   0.091818019480158   0.111026562816235   1.0000000
B2   B   0.326608874865521   0.229813300089901   0.111032406051407   1.0000000
B2   B   0.330524509378101   0.379555591931243   0.111033521734704   1.0000000
B2   B   0.326618640578062   0.525367339052941   0.111038477143985   1.0000000
B2   B   0.331626518901601   0.668375319139379   0.111034376340918   1.0000000
B2   B   0.332707826806271   0.810051642682289   0.111039270479424   1.0000000
B2   B   0.475889677092660   0.952229355170559   0.111011061918795   1.0000000
B2   B   0.475601342384941   0.091905114595164   0.111044423644010   1.0000000
B2   B   0.474620281583327   0.229816920876608   0.111022157795467   1.0000000
B2   B   0.463733237404220   0.356083038256713   0.111027796958432   1.0000000
B2   B   0.463754297377520   0.536247520366196   0.111035553383722   1.0000000
B2   B   0.474633840788499   0.673382439874814   0.111032538467782   1.0000000
B2   B   0.475609648158546   0.812263862272353   0.111043612104936   1.0000000
B2   B   0.619274345348728   0.953133187107845   0.111022720197539   1.0000000
B2   B   0.619256163799385   0.094695090987827   0.111033397000000   1.0000000
B2   B   0.619391421849933   0.236414343435001   0.111024429715499   1.0000000
B2   B   0.620438362487299   0.379563733256539   0.111026411235521   1.0000000
B2   B   0.643917078664877   0.536267740917772   0.111018827319022   1.0000000
B2   B   0.620446281383607   0.669477257385246   0.111029284244481   1.0000000
B2   B   0.619382435754609   0.811550617170454   0.111012753316857   1.0000000
B2   B   0.762367190596507   0.953292386739456   0.111022032528652   1.0000000
B2   B   0.762138474276078   0.095356020392188   0.111042707310290   1.0000000
B2   B   0.762364916252722   0.237636693197928   0.111036637901748   1.0000000
B2   B   0.763587416151623   0.380610352052720   0.111030276533590   1.0000000
B2   B   0.770185245536105   0.525381703461022   0.111034372338473   1.0000000
B2   B   0.770187787012340   0.673392366640066   0.111037687908599   1.0000000
B2   B   0.763588003762138   0.811551378506735   0.111024524732855   1.0000000
N2   N   0.953632918186443   0.906311534070127   0.111000883918642   1.0000000
N2   N   0.952141049108207   0.047860705635230   0.111015801142614   1.0000000
N2   N   0.951939804420562   0.190252449963765   0.111015413560750   1.0000000
N2   N   0.952138918477900   0.332846748056724   0.110992829337448   1.0000000
N2   N   0.953631535057831   0.475891445479292   0.111017058537343   1.0000000
N2   N   0.954442265977200   0.619654484753880   0.111003506334171   1.0000000
N2   N   0.954447546800715   0.763356570045758   0.111021345511645   1.0000000
N2   N   0.095344531657823   0.904657669213094   0.110977388267756   1.0000000
N2   N   0.093690753414030   0.046369410697800   0.111018553667741   1.0000000
N2   N   0.093848915522265   0.189709925959889   0.111008597744132   1.0000000
N2   N   0.093851386679120   0.332700324474281   0.111005829429558   1.0000000
N2   N   0.093689571742253   0.475883216469327   0.111023988061490   1.0000000
N2   N   0.095338089707326   0.619248288604659   0.110985883733541   1.0000000
N2   N   0.095846077965866   0.762204293265370   0.111022211917167   1.0000000
N2   N   0.237797661992445   0.904155738106098   0.111004826128060   1.0000000
N2   N   0.236645547488465   0.045554609492463   0.111009386923712   1.0000000
N2   N   0.233140649729272   0.185686691283756   0.111020740023996   1.0000000
N2   N   0.235773311826371   0.332178173482205   0.111006813602785   1.0000000
N2   N   0.233146029894577   0.476024530418364   0.111023552861234   1.0000000
N2   N   0.236642305623555   0.619651751457020   0.111000902339846   1.0000000
N2   N   0.237792790135003   0.762209197250058   0.111021538214189   1.0000000
N2   N   0.380753780320248   0.904663940051982   0.110985083826250   1.0000000
N2   N   0.380347261636167   0.045559566533576   0.111013976266477   1.0000000
N2   N   0.378605125771856   0.185791816732824   0.110995363193041   1.0000000
N2   N   0.371548654123373   0.322892475038031   0.111014644754199   1.0000000
N2   N   0.371562008308167   0.477238774349928   0.111023746223502   1.0000000
N2   N   0.378613811115422   0.621387874364657   0.111001911397423   1.0000000
N2   N   0.380349876931774   0.763359579708876   0.111025754695923   1.0000000
N2   N   0.524118563427500   0.906312174241684   0.110999443328374   1.0000000
N2   N   0.524110178909325   0.046370434544940   0.111012318455614   1.0000000
N2   N   0.523973231201147   0.185690022295859   0.111016261436561   1.0000000
N2   N   0.522744108117550   0.322898626131447   0.111007735083582   1.0000000
N2   N   0.522762920289338   0.628439546730547   0.111017163639865   1.0000000
N2   N   0.523977074855814   0.766855559747555   0.111011167082843   1.0000000
N2   N   0.667301174957665   0.906149952310912   0.110995979955774   1.0000000
N2   N   0.667154756638624   0.047863157922535   0.111015289542408   1.0000000
N2   N   0.667297047227024   0.189717263299770   0.111008944757422   1.0000000
N2   N   0.667819633545520   0.332182219346215   0.111009364831908   1.0000000
N2   N   0.677103584306238   0.477257822633270   0.111016898177802   1.0000000
N2   N   0.677109142423184   0.628453076753239   0.111020250526309   1.0000000
N2   N   0.667823554195387   0.764228289708250   0.110998584140034   1.0000000
N2   N   0.810291956547310   0.906152852215591   0.111002832746657   1.0000000
N2   N   0.809748430859258   0.048062014607588   0.111024169984752   1.0000000
N2   N   0.809747033828693   0.190255921746782   0.111019936792872   1.0000000
N2   N   0.810284622758864   0.332704727102580   0.111009518795363   1.0000000
N2   N   0.814312005372436   0.476028438156902   0.111026142739512   1.0000000
N2   N   0.814210240275756   0.621396712005101   0.111004463162111   1.0000000
N2   N   0.814315220814322   0.766861000231778   0.111017180515951   1.0000000


