data_1
_audit_creation_method   'vasp2cif'
_cell_length_a    17.52789999999977
_cell_length_b    17.52789999999977
_cell_length_c    15.0
_cell_angle_alpha    90.0
_cell_angle_beta    90.0
_cell_angle_gamma    119.99999999999916

_symmetry_space_group_name_H-M    'P 1'
loop_
_atom_site_label
_atom_site_type_symbol
_atom_site_fract_x
_atom_site_fract_y
_atom_site_fract_z
_atom_site_occupancy
B2   B   0.902151140323758   0.949837049059445   0.111151233724648   1.0000000
B2   B   0.903762507224014   0.093780238335254   0.111033862376217   1.0000000
B2   B   0.905285390936831   0.237461696538368   0.111029281457185   1.0000000
B2   B   0.907657516334224   0.381372029791809   0.111170459324587   1.0000000
B2   B   0.908589118392574   0.525056293841545   0.111131797081252   1.0000000
B2   B   0.905134082795496   0.667140104158636   0.111162806476177   1.0000000
B2   B   0.900929737172372   0.806208517032080   0.111171555455711   1.0000000
B2   B   0.045680792764038   0.951711234470685   0.110908883939662   1.0000000
B2   B   0.046416772964050   0.094865978828161   0.111055376595189   1.0000000
B2   B   0.047215310916200   0.238121214700806   0.111269516887198   1.0000000
B2   B   0.048411056333347   0.381766154151974   0.111420575449091   1.0000000
B2   B   0.049353093088288   0.525598689020546   0.111240656238528   1.0000000
B2   B   0.048429814897370   0.668744779528760   0.111169191081920   1.0000000
B2   B   0.047351852091724   0.810834370840573   0.110993029336263   1.0000000
B2   B   0.190980896544792   0.955249306385347   0.110787430655457   1.0000000
B2   B   0.189634518680755   0.096358335544752   0.111045777313284   1.0000000
B2   B   0.190209194684798   0.240013559542835   0.111292788514771   1.0000000
B2   B   0.189800963282569   0.382765193714124   0.111318144377772   1.0000000
B2   B   0.190439754730579   0.526066993295937   0.111092839714802   1.0000000
B2   B   0.190404067445679   0.669460672623132   0.110986356814459   1.0000000
B2   B   0.190787423685146   0.812512932327998   0.110983562264990   1.0000000
B2   B   0.334281050367085   0.956483002723422   0.110918804894803   1.0000000
B2   B   0.335545230880548   0.100392215091283   0.110991290970746   1.0000000
B2   B   0.332811274576383   0.240061816949763   0.110992914977298   1.0000000
B2   B   0.333990564282723   0.386961594650295   0.110864842062658   1.0000000
B2   B   0.331976945258738   0.528199244494740   0.110797515855501   1.0000000
B2   B   0.331858371275331   0.670058418442110   0.110694741296625   1.0000000
B2   B   0.333312932459479   0.813014734464719   0.110900318191001   1.0000000
B2   B   0.476631551782776   0.955526104242938   0.110973065073795   1.0000000
B2   B   0.478074800360795   0.100817715519574   0.110945347756020   1.0000000
B2   B   0.480022703816104   0.248924170810473   0.110989711780663   1.0000000
B2   B   0.472330775240338   0.667783563410520   0.110660759175588   1.0000000
B2   B   0.475443013618184   0.811453150498079   0.110830165794232   1.0000000
B2   B   0.618585971150757   0.951763479668866   0.111136365621050   1.0000000
B2   B   0.619794983243300   0.095466226355577   0.110915684396725   1.0000000
B2   B   0.621878445903037   0.238638424405436   0.110911457330460   1.0000000
B2   B   0.630547726607019   0.381695727640321   0.110839688181838   1.0000000
B2   B   0.614703296890642   0.504661356460573   0.110965651953933   1.0000000
B2   B   0.612277598581030   0.658001355206177   0.110997586472696   1.0000000
B2   B   0.616946718539005   0.806832699332966   0.111105277299420   1.0000000
B2   B   0.760231476236070   0.949925804240679   0.111273662494469   1.0000000
B2   B   0.761761898913773   0.093953359627069   0.111020804750860   1.0000000
B2   B   0.763602539009589   0.237481059072705   0.110881028765874   1.0000000
B2   B   0.767706332648563   0.381175379464146   0.110984699990299   1.0000000
B2   B   0.768426730062660   0.524325681307638   0.110960602731497   1.0000000
B2   B   0.754907057191551   0.658620196802999   0.111191788261100   1.0000000
B2   B   0.757475557620613   0.804414205186800   0.111331707743616   1.0000000
N2   N   0.949583277947014   0.902251046137753   0.111058639221927   1.0000000
N2   N   0.950857729393685   0.045804220415046   0.111011583322257   1.0000000
N2   N   0.952137041957626   0.189450155513350   0.110996273357994   1.0000000
N2   N   0.953802645248644   0.333079262073106   0.111242090363466   1.0000000
N2   N   0.954984850751280   0.476871510245175   0.111197245917846   1.0000000
N2   N   0.953531956918783   0.620226434545820   0.111146417297622   1.0000000
N2   N   0.951606070180965   0.761932353867819   0.111053725445429   1.0000000
N2   N   0.095139199098383   0.906228485630427   0.110725136738448   1.0000000
N2   N   0.094009262220882   0.047431759022196   0.110939714799829   1.0000000
N2   N   0.094733979103052   0.190753357530879   0.111240095550260   1.0000000
N2   N   0.095065339914231   0.333750178479400   0.111486945592111   1.0000000
N2   N   0.095922460625598   0.477343398925518   0.111349144373996   1.0000000
N2   N   0.095745958563757   0.620991421211757   0.111061453117942   1.0000000
N2   N   0.095579182162496   0.764052563246548   0.111131080831982   1.0000000
N2   N   0.238859260838196   0.908104866704894   0.110795158964991   1.0000000
N2   N   0.239399235149936   0.051040913865121   0.110880827369292   1.0000000
N2   N   0.236919658223436   0.191627941208579   0.111218212418378   1.0000000
N2   N   0.237579008285299   0.336127070371916   0.111265565555817   1.0000000
N2   N   0.237353483541662   0.478108130070104   0.111027751240056   1.0000000
N2   N   0.237277575276092   0.621469117296010   0.110854139957561   1.0000000
N2   N   0.238227585339076   0.764892674586316   0.110893989198774   1.0000000
N2   N   0.381388128442865   0.908368325682642   0.110952253679359   1.0000000
N2   N   0.382603816783332   0.052365918906588   0.110946622387342   1.0000000
N2   N   0.384221047030420   0.196872968817636   0.111050573119605   1.0000000
N2   N   0.369707600524776   0.331790097256755   0.110360200632987   1.0000000
N2   N   0.379185419646377   0.481906573053101   0.110742215101159   1.0000000
N2   N   0.378349293540887   0.622297123614738   0.110567131276152   1.0000000
N2   N   0.380345410026126   0.764984613126377   0.110734623105635   1.0000000
N2   N   0.523407572558902   0.906494214351175   0.110973073880855   1.0000000
N2   N   0.524528707968378   0.051088904038209   0.110891323455498   1.0000000
N2   N   0.526489745159199   0.197459275569542   0.110946896036509   1.0000000
N2   N   0.538658980359030   0.346410405214056   0.110857316984447   1.0000000
N2   N   0.517627461432809   0.618999821553726   0.110660117707640   1.0000000
N2   N   0.522068400963766   0.762404830135430   0.110783873057762   1.0000000
N2   N   0.665063550453619   0.902476658345913   0.111225957416344   1.0000000
N2   N   0.666559937640756   0.046922830771348   0.111118932009306   1.0000000
N2   N   0.668257552579506   0.190225810627220   0.110792339848568   1.0000000
N2   N   0.673611309782774   0.332463058009651   0.110911101352519   1.0000000
N2   N   0.675775520808640   0.474729406550074   0.110785981012756   1.0000000
N2   N   0.655151970434071   0.604199092839260   0.111109462250157   1.0000000
N2   N   0.661632871827947   0.755341999594443   0.111199994473461   1.0000000
N2   N   0.806410860505173   0.900718472977064   0.111336691167992   1.0000000
N2   N   0.808553788472485   0.045552364300119   0.111109443527415   1.0000000
N2   N   0.810229011932521   0.189359946966079   0.110832679919941   1.0000000
N2   N   0.813193475263250   0.332812246505412   0.111011098655066   1.0000000
N2   N   0.814605999967768   0.476321619977219   0.110998773228196   1.0000000
N2   N   0.809670166268670   0.618166819799279   0.111068218977640   1.0000000
N2   N   0.803889504580490   0.755561120940381   0.111299385737835   1.0000000
O2   O   0.472577328707220   0.525476231014814   0.111639111862488   1.0000000
O2   O   0.528062907704361   0.424266803555408   0.110964654919390   1.0000000


