data_1
_audit_creation_method   'vasp2cif'
_cell_length_a    17.52789999999977
_cell_length_b    17.52789999999977
_cell_length_c    15.0
_cell_angle_alpha    90.0
_cell_angle_beta    90.0
_cell_angle_gamma    119.99999999999916

_symmetry_space_group_name_H-M    'P 1'
loop_
_atom_site_label
_atom_site_type_symbol
_atom_site_fract_x
_atom_site_fract_y
_atom_site_fract_z
_atom_site_occupancy
B2   B   0.905508326038848   0.952895779413215   0.105208555055145   1.0000000
B2   B   0.904755846490338   0.095245900201657   0.106346981064659   1.0000000
B2   B   0.904531139695777   0.237965316036060   0.107317635983466   1.0000000
B2   B   0.904772502536754   0.380926327991727   0.106969944659873   1.0000000
B2   B   0.905576287891064   0.524035785573980   0.105976823845015   1.0000000
B2   B   0.905496899780896   0.667082413933169   0.106846230270331   1.0000000
B2   B   0.905454542544515   0.809811370787436   0.106567639442604   1.0000000
B2   B   0.047749431661874   0.952252291703128   0.107040633468228   1.0000000
B2   B   0.047105935928764   0.094493394433137   0.105208554582144   1.0000000
B2   B   0.046698452160668   0.237373681284031   0.104364533850896   1.0000000
B2   B   0.046682454656786   0.380781130891113   0.104834902001278   1.0000000
B2   B   0.047128648080825   0.524067382162153   0.106140817874404   1.0000000
B2   B   0.047802295430487   0.666973969678260   0.107596320172756   1.0000000
B2   B   0.047893092977069   0.809686477723179   0.108336879131932   1.0000000
B2   B   0.190315271969847   0.952108670115943   0.108336877605934   1.0000000
B2   B   0.190190330248565   0.094547170163473   0.106567635318609   1.0000000
B2   B   0.188338896158736   0.235675512711862   0.104496534646778   1.0000000
B2   B   0.188134954000282   0.379831252495091   0.106464537083344   1.0000000
B2   B   0.188358551968857   0.524169104205233   0.106008639142486   1.0000000
B2   B   0.190226678727168   0.667103810973982   0.107924339858411   1.0000000
B2   B   0.190333791749947   0.809667902791016   0.108748693060947   1.0000000
B2   B   0.333027766026710   0.952199428403544   0.107596322586754   1.0000000
B2   B   0.332919300043823   0.094504840139156   0.106846225893330   1.0000000
B2   B   0.332772611304670   0.237006215472711   0.112024831416208   1.0000000
B2   B   0.325986404810281   0.374505601329939   0.128728491202984   1.0000000
B2   B   0.325986624035227   0.522863426284319   0.130372096656822   1.0000000
B2   B   0.332830659082515   0.667171043691491   0.114283925104119   1.0000000
B2   B   0.332897842346042   0.809774950115853   0.107924343391414   1.0000000
B2   B   0.475934305256848   0.952872932849153   0.106140823185405   1.0000000
B2   B   0.475965955932061   0.094425534784953   0.105976832538015   1.0000000
B2   B   0.475899033907359   0.235567096732476   0.104898308662126   1.0000000
B2   B   0.476921203902867   0.374604071282809   0.126843561241944   1.0000000
B2   B   0.477138358148655   0.674015233304759   0.130372097170828   1.0000000
B2   B   0.475832611584798   0.811643135099163   0.106008644879486   1.0000000
B2   B   0.619220608080903   0.953319229760225   0.104834904108279   1.0000000
B2   B   0.619075342356297   0.095229184745257   0.106969945745873   1.0000000
B2   B   0.619278720188299   0.237316101637968   0.105128425576032   1.0000000
B2   B   0.620233917579316   0.379767816629672   0.105841455319645   1.0000000
B2   B   0.625397497687150   0.523080463300181   0.126843555983939   1.0000000
B2   B   0.625496048125053   0.674015318905723   0.128728490915982   1.0000000
B2   B   0.620170490664910   0.811866815402724   0.106464532735341   1.0000000
B2   B   0.762628059243932   0.953303267366361   0.104364536076892   1.0000000
B2   B   0.762036379724936   0.095470536838232   0.107317638386464   1.0000000
B2   B   0.762057071145447   0.237944634034546   0.107670863953101   1.0000000
B2   B   0.762685720746033   0.380723035242716   0.105128417169032   1.0000000
B2   B   0.764434655443519   0.524102648899661   0.104898300698128   1.0000000
B2   B   0.762995443298281   0.667229069240332   0.112024840044207   1.0000000
B2   B   0.764326158712121   0.811662820523290   0.104496537120774   1.0000000
Sn2   Sn   0.476503129364850   0.523498526182169   0.200392041820984   1.0000000
N2   N   0.952620532328269   0.904825395392465   0.106241242227639   1.0000000
N2   N   0.952387175505870   0.047614541804165   0.106050736037730   1.0000000
N2   N   0.952027719821369   0.190279064900858   0.106468249593174   1.0000000
N2   N   0.952017466400901   0.333166930891798   0.106788215582789   1.0000000
N2   N   0.952402034053992   0.476177116536595   0.106777170246312   1.0000000
N2   N   0.952653936531307   0.619223707862956   0.106759270311636   1.0000000
N2   N   0.952703643624051   0.762070677563845   0.107615973624071   1.0000000
N2   N   0.095280498614561   0.904721253853440   0.108431732042023   1.0000000
N2   N   0.095176310045519   0.047381186486708   0.106241248724636   1.0000000
N2   N   0.094057216090215   0.189395032647266   0.103481117288240   1.0000000
N2   N   0.093995335418841   0.332743586834708   0.103835746394822   1.0000000
N2   N   0.094069173908817   0.476121998548525   0.104494865002711   1.0000000
N2   N   0.095203151237499   0.619248604626749   0.107176912592437   1.0000000
N2   N   0.095288446110498   0.762032730299195   0.108696517365272   1.0000000
N2   N   0.237968981861796   0.904713264647537   0.108696518257274   1.0000000
N2   N   0.237931051813163   0.047298125339926   0.107615966201074   1.0000000
N2   N   0.237846109052061   0.190005868992994   0.106952784180539   1.0000000
N2   N   0.234824287781323   0.330547682046436   0.107366888059925   1.0000000
N2   N   0.234863945580540   0.475801248626712   0.108652591342023   1.0000000
N2   N   0.237894532682636   0.619302506661384   0.108897557560815   1.0000000
N2   N   0.237924995325316   0.762076638869711   0.108638184296614   1.0000000
N2   N   0.380753066476279   0.904798474545507   0.107176916742440   1.0000000
N2   N   0.380778019324061   0.047347814388699   0.106759278059636   1.0000000
N2   N   0.380723345416640   0.189985621329072   0.107211361120456   1.0000000
N2   N   0.380650483415999   0.332860548506451   0.125568635705739   1.0000000
N2   N   0.360027223996584   0.465509204532362   0.153928525530700   1.0000000
N2   N   0.380764230480999   0.619237567477975   0.128464520809331   1.0000000
N2   N   0.380699231827556   0.762107174197374   0.108897562181816   1.0000000
N2   N   0.523879733679520   0.905932421607181   0.104494878780710   1.0000000
N2   N   0.523824541812392   0.047599627706011   0.106777170691318   1.0000000
N2   N   0.523931649478700   0.189333492906196   0.104389206487977   1.0000000
N2   N   0.524226367441558   0.330442035942451   0.106953157434010   1.0000000
N2   N   0.533580903402843   0.466420693222180   0.148571287622191   1.0000000
N2   N   0.534492454750626   0.639974458142382   0.153928527108700   1.0000000
N2   N   0.524200533986269   0.765137910747487   0.108652588526022   1.0000000
N2   N   0.667258203777266   0.906006412054134   0.103835744181822   1.0000000
N2   N   0.666834738839173   0.047984187848089   0.106788214114794   1.0000000
N2   N   0.666859159686012   0.190262792910001   0.107131129600224   1.0000000
N2   N   0.667310101266145   0.332691709282895   0.104287303298866   1.0000000
N2   N   0.669559628189545   0.475775348568421   0.106953137035010   1.0000000
N2   N   0.667141082137522   0.619351211128976   0.125568638340735   1.0000000
N2   N   0.669453984407560   0.765177469686674   0.107366880928920   1.0000000
N2   N   0.810606679868772   0.905944498943785   0.103481117664246   1.0000000
N2   N   0.809722660376153   0.047973989251633   0.106468259280174   1.0000000
N2   N   0.809543812038472   0.190457842653495   0.108317292531882   1.0000000
N2   N   0.809738945197999   0.333142525474997   0.107131123660229   1.0000000
N2   N   0.810668398648833   0.476070104971290   0.104389185976974   1.0000000
N2   N   0.810016100037892   0.619278358630389   0.107211376473458   1.0000000
N2   N   0.809995793100989   0.762155582731985   0.106952795476535   1.0000000


