data_1
_audit_creation_method   'vasp2cif'
_cell_length_a    14.93631414619966
_cell_length_b    14.936314146199727
_cell_length_c    13.341276283792837
_cell_angle_alpha    90.0
_cell_angle_beta    90.0
_cell_angle_gamma    119.99999999999984

_symmetry_space_group_name_H-M    'P 1'
loop_
_atom_site_label
_atom_site_type_symbol
_atom_site_fract_x
_atom_site_fract_y
_atom_site_fract_z
_atom_site_occupancy
C2   C   0.550320335574946   0.441826834454141   0.375000000000000   1.0000000
N2   N   0.111083462460171   0.055542417349408   0.125001157154566   1.0000000
N2   N   0.611043398245529   0.555527910362898   0.125448047613374   1.0000000
N2   N   0.444428497288793   0.055545744040021   0.125038468353934   1.0000000
N2   N   0.944391713252380   0.555534801782290   0.125089160418262   1.0000000
N2   N   0.777753290831303   0.055543312082319   0.125027753116740   1.0000000
N2   N   0.111077685547694   0.722205509440512   0.624965054753730   1.0000000
N2   N   0.444428497288793   0.722216086582108   0.624961531646066   1.0000000
N2   N   0.277740571096710   0.222206256612931   0.624896375860198   1.0000000
N2   N   0.777727263272578   0.722196152341217   0.624876280325357   1.0000000
N2   N   0.611076606110187   0.222186724631041   0.624928163406053   1.0000000
N2   N   0.944414275764911   0.222210358913558   0.624994004581345   1.0000000
N2   N   0.277758683295211   0.722212538392712   0.125011071050722   1.0000000
N2   N   0.111079294877783   0.222206314105556   0.125019552936993   1.0000000
N2   N   0.444436175719146   0.222210885865562   0.125145492981206   1.0000000
N2   N   0.611076606110187   0.722223214812475   0.125071836593947   1.0000000
N2   N   0.944391713252380   0.722190244803427   0.125089160418262   1.0000000
N2   N   0.777745721408519   0.222207960682938   0.125050975605033   1.0000000
N2   N   0.111082205984351   0.888871339692272   0.624989914251761   1.0000000
N2   N   0.444425144676586   0.888879239004954   0.624956563949900   1.0000000
N2   N   0.277740571096710   0.388867647817108   0.624896375860198   1.0000000
N2   N   0.611043398245529   0.388848821215952   0.624551952386626   1.0000000
N2   N   0.777745721408519   0.888871094058910   0.624949024394966   1.0000000
N2   N   0.944412243999097   0.388875666567533   0.624977826271714   1.0000000
N2   N   0.111083462460171   0.388874378444092   0.125001157154566   1.0000000
N2   N   0.277758683295211   0.888879478235828   0.125011071050722   1.0000000
N2   N   0.611092369330601   0.888890342514383   0.125014922087808   1.0000000
N2   N   0.444407615563767   0.388870474448544   0.124463339160416   1.0000000
N2   N   0.944412243999097   0.888869910764892   0.125022173728286   1.0000000
N2   N   0.777727263272578   0.388864444264690   0.125123719674643   1.0000000
N2   N   0.277761821694768   0.555546428178895   0.624972820163871   1.0000000
N2   N   0.111083462460171   0.055542417349408   0.624998842845434   1.0000000
N2   N   0.611043398245529   0.555527910362898   0.624551952386626   1.0000000
N2   N   0.444428497288793   0.055545744040021   0.624961531646066   1.0000000
N2   N   0.944391713252380   0.555534801782290   0.624910839581737   1.0000000
N2   N   0.111082205984351   0.555544199625415   0.125010085748239   1.0000000
N2   N   0.777753290831303   0.055543312082319   0.624972246883260   1.0000000
N2   N   0.277761821694768   0.055548726849203   0.125027179836129   1.0000000
N2   N   0.444436175719146   0.555558623186919   0.125145492981206   1.0000000
N2   N   0.777689481102393   0.555511407217867   0.125314429192591   1.0000000
N2   N   0.611092369330601   0.055535360149545   0.125014922087808   1.0000000
N2   N   0.444436175719146   0.555558623186919   0.624854507018794   1.0000000
N2   N   0.944414275764911   0.055537250184689   0.125005995418655   1.0000000
N2   N   0.277758683295211   0.722212538392712   0.624988928949277   1.0000000
N2   N   0.111079294877783   0.222206314105556   0.624980447063007   1.0000000
N2   N   0.444436175719146   0.222210885865562   0.624854507018794   1.0000000
N2   N   0.611076606110187   0.722223214812475   0.624928163406053   1.0000000
N2   N   0.944391713252380   0.722190244803427   0.624910839581737   1.0000000
N2   N   0.777745721408519   0.222207960682938   0.624949024394966   1.0000000
N2   N   0.111077685547694   0.722205509440512   0.125034945246269   1.0000000
N2   N   0.444428497288793   0.722216086582108   0.125038468353934   1.0000000
N2   N   0.277740571096710   0.222206256612931   0.125103624139802   1.0000000
N2   N   0.777727263272578   0.722196152341217   0.125123719674643   1.0000000
N2   N   0.611076606110187   0.222186724631041   0.125071836593947   1.0000000
N2   N   0.944414275764911   0.222210358913558   0.125005995418655   1.0000000
N2   N   0.111083462460171   0.388874378444092   0.624998842845434   1.0000000
N2   N   0.277758683295211   0.888879478235828   0.624988928949277   1.0000000
N2   N   0.611092369330601   0.888890342514383   0.624985077912192   1.0000000
N2   N   0.444407615563767   0.388870474448544   0.625536660839584   1.0000000
N2   N   0.944412243999097   0.888869910764892   0.624977826271714   1.0000000
N2   N   0.111082205984351   0.888871339692272   0.125010085748239   1.0000000
N2   N   0.777727263272578   0.388864444264690   0.624876280325357   1.0000000
N2   N   0.444425144676586   0.888879239004954   0.125043436050101   1.0000000
N2   N   0.277740571096710   0.388867647817108   0.125103624139802   1.0000000
N2   N   0.277761821694768   0.555546428178895   0.125027179836129   1.0000000
N2   N   0.611043398245529   0.388848821215952   0.125448047613374   1.0000000
N2   N   0.777745721408519   0.888871094058910   0.125050975605033   1.0000000
N2   N   0.944412243999097   0.388875666567533   0.125022173728286   1.0000000
N2   N   0.111082205984351   0.555544199625415   0.624989914251761   1.0000000
N2   N   0.277761821694768   0.055548726849203   0.624972820163871   1.0000000
N2   N   0.777689481102393   0.555511407217867   0.624685570807409   1.0000000
N2   N   0.611092369330601   0.055535360149545   0.624985077912192   1.0000000
N2   N   0.944414275764911   0.055537250184689   0.624994004581345   1.0000000
N2   N   0.056297428830184   0.111495696537350   0.375000000000000   1.0000000
N2   N   0.556440755425854   0.615337465199586   0.375000000000000   1.0000000
N2   N   0.388877319797413   0.110060474544541   0.375000000000000   1.0000000
N2   N   0.887332001688554   0.610332667510945   0.375000000000000   1.0000000
N2   N   0.722900935225602   0.111068792677583   0.375000000000000   1.0000000
N2   N   0.055516218108658   0.777756988670212   0.875000000000000   1.0000000
N2   N   0.388852653330077   0.777760299280273   0.875000000000000   1.0000000
N2   N   0.222187218934485   0.277760276133910   0.875000000000000   1.0000000
N2   N   0.722189405915885   0.777761140125898   0.875000000000000   1.0000000
N2   N   0.555518482404475   0.277760480786805   0.875000000000000   1.0000000
N2   N   0.888859911906159   0.277765711117092   0.875000000000000   1.0000000
N2   N   0.221568133821091   0.777450733577213   0.375000000000000   1.0000000
N2   N   0.056297428830184   0.278135065626163   0.375000000000000   1.0000000
N2   N   0.388268234124335   0.273658201237983   0.375000000000000   1.0000000
N2   N   0.555774333515620   0.779553595276585   0.375000000000000   1.0000000
N2   N   0.888888323644096   0.778094358890416   0.375000000000000   1.0000000
N2   N   0.722891328246067   0.277068735064827   0.375000000000000   1.0000000
N2   N   0.055521951885797   0.944423660463857   0.875000000000000   1.0000000
N2   N   0.388852653330077   0.944425687383147   0.875000000000000   1.0000000
N2   N   0.222185883044757   0.444430067884856   0.875000000000000   1.0000000
N2   N   0.555529628081956   0.444431480707642   0.875000000000000   1.0000000
N2   N   0.722188694486596   0.944426914134042   0.875000000000000   1.0000000
N2   N   0.888857811251131   0.444430401185507   0.875000000000000   1.0000000
N2   N   0.055823521503464   0.444583719898066   0.375000000000000   1.0000000
N2   N   0.221846617689131   0.943954580128046   0.375000000000000   1.0000000
N2   N   0.555659773742735   0.944496553538032   0.375000000000000   1.0000000
N2   N   0.388268234124335   0.447943366219689   0.375000000000000   1.0000000
N2   N   0.889617188069977   0.945094036156508   0.375000000000000   1.0000000
N2   N   0.721404654868943   0.442965691775044   0.375000000000000   1.0000000
N2   N   0.222184589864894   0.611095323987114   0.875000000000000   1.0000000
N2   N   0.055523014651105   0.111092290462848   0.875000000000000   1.0000000
N2   N   0.555518482404475   0.611091334951005   0.875000000000000   1.0000000
N2   N   0.388852522527438   0.111093378240310   0.875000000000000   1.0000000
N2   N   0.888852355837552   0.611092844585447   0.875000000000000   1.0000000
N2   N   0.054763041415587   0.610818547171576   0.375000000000000   1.0000000
N2   N   0.722188694486596   0.111095113685889   0.875000000000000   1.0000000
N2   N   0.222745690010377   0.111172309192841   0.375000000000000   1.0000000
N2   N   0.388877319797413   0.612150178586222   0.375000000000000   1.0000000
N2   N   0.721404654868943   0.611772296427242   0.375000000000000   1.0000000
N2   N   0.555774333515620   0.109554071572371   0.375000000000000   1.0000000
N2   N   0.388852522527438   0.611092477620471   0.875000000000000   1.0000000
N2   N   0.889773828969778   0.111553581151557   0.375000000000000   1.0000000
N2   N   0.222183508149913   0.777758420741628   0.875000000000000   1.0000000
N2   N   0.055523014651105   0.277764057521586   0.875000000000000   1.0000000
N2   N   0.388849642015945   0.277755597207409   0.875000000000000   1.0000000
N2   N   0.555518854895352   0.777760119210014   0.875000000000000   1.0000000
N2   N   0.888857811251131   0.777760743398960   0.875000000000000   1.0000000
N2   N   0.722189405915885   0.277761599123322   0.875000000000000   1.0000000
N2   N   0.054763041415587   0.777277827577347   0.375000000000000   1.0000000
N2   N   0.388546743683125   0.777964616504868   0.375000000000000   1.0000000
N2   N   0.222708069054728   0.278020701194032   0.375000000000000   1.0000000
N2   N   0.722891328246067   0.779155926514575   0.375000000000000   1.0000000
N2   N   0.556440755425854   0.274436623559604   0.375000000000000   1.0000000
N2   N   0.889617188069977   0.277856485246805   0.375000000000000   1.0000000
N2   N   0.055521951885797   0.444431624755269   0.875000000000000   1.0000000
N2   N   0.222184589864894   0.944422599211115   0.875000000000000   1.0000000
N2   N   0.555518768978649   0.944426051155988   0.875000000000000   1.0000000
N2   N   0.388849642015945   0.444427378141864   0.875000000000000   1.0000000
N2   N   0.888859911906159   0.944427534122403   0.875000000000000   1.0000000
N2   N   0.055823521503464   0.944573134938734   0.375000000000000   1.0000000
N2   N   0.722183273426342   0.444427360108608   0.875000000000000   1.0000000
N2   N   0.388546743683125   0.943915460511593   0.375000000000000   1.0000000
N2   N   0.222745690010377   0.444906714150871   0.375000000000000   1.0000000
N2   N   0.221846617689131   0.611225370894422   0.375000000000000   1.0000000
N2   N   0.722900935225602   0.945165475881355   0.375000000000000   1.0000000
N2   N   0.888888323644096   0.444127298087016   0.375000000000000   1.0000000
N2   N   0.055516218108658   0.611092562771781   0.875000000000000   1.0000000
N2   N   0.222185883044757   0.111089148493236   0.875000000000000   1.0000000
N2   N   0.722183273426342   0.611089246651071   0.875000000000000   1.0000000
N2   N   0.555518854895352   0.111092069018674   0.875000000000000   1.0000000
N2   N   0.888859646412548   0.111096489872943   0.875000000000000   1.0000000
B2   B   0.112033287568815   0.056091518112745   0.375000000000000   1.0000000
B2   B   0.610127112879681   0.560238994526356   0.375000000000000   1.0000000
B2   B   0.444474195157561   0.054816672570110   0.375000000000000   1.0000000
B2   B   0.943762130988435   0.555111262655025   0.375000000000000   1.0000000
B2   B   0.778747749063396   0.056040541198366   0.375000000000000   1.0000000
B2   B   0.111078224237259   0.722205778785294   0.875000000000000   1.0000000
B2   B   0.444394509690143   0.722180504454709   0.875000000000000   1.0000000
B2   B   0.277757520168683   0.222221704664122   0.875000000000000   1.0000000
B2   B   0.777739688010844   0.722201245101207   0.875000000000000   1.0000000
B2   B   0.611056414862735   0.222207599637959   0.875000000000000   1.0000000
B2   B   0.944439644295041   0.222219423864614   0.875000000000000   1.0000000
B2   B   0.277374137204833   0.722118721272389   0.375000000000000   1.0000000
B2   B   0.112206554824618   0.222769944078970   0.375000000000000   1.0000000
B2   B   0.444624355157467   0.222033043903064   0.375000000000000   1.0000000
B2   B   0.611844492144631   0.725319963416787   0.375000000000000   1.0000000
B2   B   0.943762130988435   0.721984201666747   0.375000000000000   1.0000000
B2   B   0.778788778727088   0.221920805942649   0.375000000000000   1.0000000
B2   B   0.111088347129619   0.888883724269166   0.875000000000000   1.0000000
B2   B   0.444398300888554   0.888865817110938   0.875000000000000   1.0000000
B2   B   0.277757520168683   0.388869148837889   0.875000000000000   1.0000000
B2   B   0.611039308220420   0.388860445871499   0.875000000000000   1.0000000
B2   B   0.777750962330742   0.888874069909089   0.875000000000000   1.0000000
B2   B   0.944425445408716   0.388875522663168   0.875000000000000   1.0000000
B2   B   0.112033287568815   0.389275102789399   0.375000000000000   1.0000000
B2   B   0.277374137204833   0.888588749265773   0.375000000000000   1.0000000
B2   B   0.611673416574822   0.889932058686062   0.375000000000000   1.0000000
B2   B   0.944890449592003   0.889355707599293   0.375000000000000   1.0000000
B2   B   0.778022711511853   0.388080071423484   0.375000000000000   1.0000000
B2   B   0.277742888605509   0.555520210165993   0.875000000000000   1.0000000
B2   B   0.111102453118137   0.055561342305125   0.875000000000000   1.0000000
B2   B   0.611039308220420   0.555512195682249   0.875000000000000   1.0000000
B2   B   0.444394509690143   0.055547338568763   0.875000000000000   1.0000000
B2   B   0.944415108613888   0.555538038386045   0.875000000000000   1.0000000
B2   B   0.110867294941102   0.555567178429318   0.375000000000000   1.0000000
B2   B   0.777752757158746   0.055543045246041   0.875000000000000   1.0000000
B2   B   0.277668833004063   0.055349186375675   0.375000000000000   1.0000000
B2   B   0.444624355157467   0.555924644587739   0.375000000000000   1.0000000
B2   B   0.776203975525765   0.554768654429550   0.375000000000000   1.0000000
B2   B   0.611673416574822   0.055074691222088   0.375000000000000   1.0000000
B2   B   0.444380529382136   0.555494239380610   0.875000000000000   1.0000000
B2   B   0.945543731688496   0.056215347881396   0.375000000000000   1.0000000
B2   B   0.277740844334192   0.722195132413060   0.875000000000000   1.0000000
B2   B   0.111111497217061   0.222222415275195   0.875000000000000   1.0000000
B2   B   0.444380529382136   0.222219623334861   0.875000000000000   1.0000000
B2   B   0.611056414862735   0.722182148558098   0.875000000000000   1.0000000
B2   B   0.944415108613888   0.722210403561179   0.875000000000000   1.0000000
B2   B   0.777750962330742   0.222210225754974   0.875000000000000   1.0000000
B2   B   0.110434897302165   0.721884115317747   0.375000000000000   1.0000000
B2   B   0.444474195157561   0.722990855920787   0.375000000000000   1.0000000
B2   B   0.279952100617272   0.224129860718418   0.375000000000000   1.0000000
B2   B   0.778022711511853   0.723275973421696   0.375000000000000   1.0000000
B2   B   0.611844492144631   0.219857862061174   0.375000000000000   1.0000000
B2   B   0.945543731688496   0.222661717140436   0.375000000000000   1.0000000
B2   B   0.111102453118137   0.388874444146340   0.875000000000000   1.0000000
B2   B   0.277740844334192   0.888879045254460   0.875000000000000   1.0000000
B2   B   0.611069964577533   0.888861448035694   0.875000000000000   1.0000000
B2   B   0.444348364766449   0.388840849049889   0.875000000000000   1.0000000
B2   B   0.944425445408716   0.888883256078877   0.875000000000000   1.0000000
B2   B   0.110867294941102   0.888633449845113   0.375000000000000   1.0000000
B2   B   0.777739688010844   0.388871776242965   0.875000000000000   1.0000000
B2   B   0.444386415461026   0.888859874397181   0.375000000000000   1.0000000
B2   B   0.279952100617272   0.389155573232175   0.375000000000000   1.0000000
B2   B   0.277668833004063   0.555652979961730   0.375000000000000   1.0000000
B2   B   0.610127112879681   0.383221451686653   0.375000000000000   1.0000000
B2   B   0.778788778727088   0.890201306117767   0.375000000000000   1.0000000
B2   B   0.944890449592003   0.388868075326047   0.375000000000000   1.0000000
B2   B   0.111088347129619   0.555537956193782   0.875000000000000   1.0000000
B2   B   0.277742888605509   0.055556011772860   0.875000000000000   1.0000000
B2   B   0.777729691949537   0.555531512641436   0.875000000000000   1.0000000
B2   B   0.611069964577533   0.055541849875168   0.875000000000000   1.0000000
B2   B   0.944439644295041   0.055553553763755   0.875000000000000   1.0000000
B2   B   0.055593518048818   0.111153288178572   0.125015763318121   1.0000000
B2   B   0.555385653071976   0.611043793270378   0.125192118709382   1.0000000
B2   B   0.388863332697473   0.111167377021816   0.125116630833938   1.0000000
B2   B   0.888851380644855   0.611092356989098   0.125021242480008   1.0000000
B2   B   0.722188924454983   0.111081937091633   0.124979109929533   1.0000000
B2   B   0.055560617540878   0.777799136526268   0.625009933149510   1.0000000
B2   B   0.388871849693026   0.777753510176801   0.625000664815419   1.0000000
B2   B   0.222300811084015   0.277817072208672   0.624737761317599   1.0000000
B2   B   0.722151561798712   0.777766234217793   0.625029497188052   1.0000000
B2   B   0.555385653071976   0.277675193134940   0.624807881290618   1.0000000
B2   B   0.888885943712553   0.277755462235278   0.625016974916398   1.0000000
B2   B   0.222228703269276   0.777781018301306   0.124973889770934   1.0000000
B2   B   0.055593518048818   0.277773563203582   0.125015763318121   1.0000000
B2   B   0.388860750472227   0.277874246990789   0.125718118266756   1.0000000
B2   B   0.555504794659327   0.777760441510051   0.124992307145671   1.0000000
B2   B   0.888856081585601   0.777788308132550   0.124997573615308   1.0000000
B2   B   0.722151561798712   0.277718660914255   0.124970502811955   1.0000000
B2   B   0.055576941726645   0.944502262913401   0.625021378931506   1.0000000
B2   B   0.388871849693026   0.944451672849560   0.625000664815419   1.0000000
B2   B   0.222275288228158   0.444374109009172   0.624826064421633   1.0000000
B2   B   0.555211677223043   0.444272505278186   0.624807648471274   1.0000000
B2   B   0.722188924454983   0.944440320696685   0.625020890070467   1.0000000
B2   B   0.888856081585601   0.444401106786387   0.625002426384693   1.0000000
B2   B   0.055576941726645   0.444408012146566   0.124978621068493   1.0000000
B2   B   0.222238018252419   0.944504951134942   0.125002957577951   1.0000000
B2   B   0.555527045463097   0.944430189398218   0.124982388819599   1.0000000
B2   B   0.388860750472227   0.444319836814782   0.125718118266756   1.0000000
B2   B   0.888885943712553   0.944463814810611   0.124983025083601   1.0000000
B2   B   0.722094794650932   0.444356895231362   0.125163797359766   1.0000000
B2   B   0.222238018252419   0.611066400450812   0.624997042422049   1.0000000
B2   B   0.055593518048818   0.111153288178572   0.624984236681879   1.0000000
B2   B   0.555385653071976   0.611043793270378   0.624807881290618   1.0000000
B2   B   0.388863332697473   0.111167377021816   0.624883369166063   1.0000000
B2   B   0.888851380644855   0.611092356989098   0.624978757519992   1.0000000
B2   B   0.055560617540878   0.611094814347946   0.124990066850490   1.0000000
B2   B   0.722188924454983   0.111081937091633   0.625020890070467   1.0000000
B2   B   0.222275288228158   0.111234512552321   0.125173935578367   1.0000000
B2   B   0.388863332697473   0.611029289009000   0.125116630833938   1.0000000
B2   B   0.722094794650932   0.611071232752905   0.125163797359766   1.0000000
B2   B   0.555504794659327   0.111077686482611   0.124992307145671   1.0000000
B2   B   0.388863332697473   0.611029289009000   0.624883369166063   1.0000000
B2   B   0.888893957369016   0.111113645351183   0.124967446761525   1.0000000
B2   B   0.222228703269276   0.777781018301306   0.625026110229066   1.0000000
B2   B   0.055593518048818   0.277773563203582   0.624984236681879   1.0000000
B2   B   0.388860750472227   0.277874246990789   0.624281881733245   1.0000000
B2   B   0.555504794659327   0.777760441510051   0.625007692854328   1.0000000
B2   B   0.888856081585601   0.777788308132550   0.625002426384693   1.0000000
B2   B   0.722151561798712   0.277718660914255   0.625029497188052   1.0000000
B2   B   0.055560617540878   0.777799136526268   0.124990066850490   1.0000000
B2   B   0.388871849693026   0.777753510176801   0.124999335184582   1.0000000
B2   B   0.222300811084015   0.277817072208672   0.125262238682401   1.0000000
B2   B   0.722151561798712   0.777766234217793   0.124970502811955   1.0000000
B2   B   0.555385653071976   0.277675193134940   0.125192118709382   1.0000000
B2   B   0.888885943712553   0.277755462235278   0.124983025083601   1.0000000
B2   B   0.055576941726645   0.444408012146566   0.625021378931506   1.0000000
B2   B   0.222238018252419   0.944504951134942   0.624997042422049   1.0000000
B2   B   0.555527045463097   0.944430189398218   0.625017611180401   1.0000000
B2   B   0.388860750472227   0.444319836814782   0.624281881733245   1.0000000
B2   B   0.888885943712553   0.944463814810611   0.625016974916398   1.0000000
B2   B   0.055576941726645   0.944502262913401   0.124978621068493   1.0000000
B2   B   0.722094794650932   0.444356895231362   0.624836202640235   1.0000000
B2   B   0.388871849693026   0.944451672849560   0.124999335184582   1.0000000
B2   B   0.222275288228158   0.444374109009172   0.125173935578367   1.0000000
B2   B   0.222238018252419   0.611066400450812   0.125002957577951   1.0000000
B2   B   0.555211677223043   0.444272505278186   0.125192351528726   1.0000000
B2   B   0.722188924454983   0.944440320696685   0.124979109929533   1.0000000
B2   B   0.888856081585601   0.444401106786387   0.124997573615308   1.0000000
B2   B   0.055560617540878   0.611094814347946   0.625009933149510   1.0000000
B2   B   0.222275288228158   0.111234512552321   0.624826064421633   1.0000000
B2   B   0.722094794650932   0.611071232752905   0.624836202640235   1.0000000
B2   B   0.555504794659327   0.111077686482611   0.625007692854328   1.0000000
B2   B   0.888893957369016   0.111113645351183   0.625032553238475   1.0000000


