data_1
_audit_creation_method   'vasp2cif'
_cell_length_a    14.93631414619966
_cell_length_b    14.936314146199727
_cell_length_c    13.341276283792837
_cell_angle_alpha    90.0
_cell_angle_beta    90.0
_cell_angle_gamma    119.99999999999984

_symmetry_space_group_name_H-M    'P 1'
loop_
_atom_site_label
_atom_site_type_symbol
_atom_site_fract_x
_atom_site_fract_y
_atom_site_fract_z
_atom_site_occupancy
Sb2   Sb   0.555555555555557   0.444444444444443   0.375000000000000   1.0000000
N2   N   0.111103774510097   0.055546879448137   0.125204969559707   1.0000000
N2   N   0.611165583603091   0.555664500539515   0.120683667725888   1.0000000
N2   N   0.444442099894755   0.055557024771522   0.125225976839747   1.0000000
N2   N   0.944442975228477   0.555557900105246   0.125225976839747   1.0000000
N2   N   0.777779736115855   0.055556534724594   0.125002098477114   1.0000000
N2   N   0.111112967741683   0.722223150537508   0.624722766743104   1.0000000
N2   N   0.444442099894755   0.722218408456570   0.624774023160251   1.0000000
N2   N   0.277751132395965   0.222208277498855   0.625758938018333   1.0000000
N2   N   0.777791722501143   0.722248867604036   0.625758938018333   1.0000000
N2   N   0.611123811769560   0.222208277498855   0.625758938018333   1.0000000
N2   N   0.944443465275404   0.222220263884147   0.624997901522885   1.0000000
N2   N   0.277776849462495   0.722223150537508   0.125277233256902   1.0000000
N2   N   0.111088085081110   0.222210709207215   0.124928926474575   1.0000000
N2   N   0.444453767730416   0.222240868794176   0.123707394682248   1.0000000
N2   N   0.611123811769560   0.722248867604036   0.124241061981669   1.0000000
N2   N   0.944442975228477   0.722218408456570   0.125225976839747   1.0000000
N2   N   0.777789290792783   0.222210709207215   0.124928926474575   1.0000000
N2   N   0.111113785073134   0.888886214926863   0.624674178238482   1.0000000
N2   N   0.444439096520411   0.888886214926863   0.624674178238482   1.0000000
N2   N   0.277751132395965   0.388876188230439   0.625758938018333   1.0000000
N2   N   0.611165583603091   0.388834416396907   0.629316332274119   1.0000000
N2   N   0.777789290792783   0.888911914918889   0.625071073525423   1.0000000
N2   N   0.944453120551863   0.388890228395288   0.624795030440300   1.0000000
N2   N   0.111103774510097   0.388890228395288   0.125204969559707   1.0000000
N2   N   0.277776849462495   0.888887032258318   0.125277233256902   1.0000000
N2   N   0.611109771604712   0.888896225489902   0.125204969559707   1.0000000
N2   N   0.444335499460492   0.388834416396907   0.120683667725888   1.0000000
N2   N   0.944453120551863   0.888896225489902   0.125204969559707   1.0000000
N2   N   0.777791722501143   0.388876188230439   0.124241061981669   1.0000000
N2   N   0.277781591543433   0.555557900105246   0.624774023160251   1.0000000
N2   N   0.111103774510097   0.055546879448137   0.624795030440300   1.0000000
N2   N   0.611165583603091   0.555664500539515   0.629316332274119   1.0000000
N2   N   0.444442099894755   0.055557024771522   0.624774023160251   1.0000000
N2   N   0.944442975228477   0.555557900105246   0.624774023160251   1.0000000
N2   N   0.111113785073134   0.555560903479588   0.125325821761518   1.0000000
N2   N   0.777779736115855   0.055556534724594   0.624997901522885   1.0000000
N2   N   0.277781591543433   0.055557024771522   0.125225976839747   1.0000000
N2   N   0.444453767730416   0.555546232269576   0.123707394682248   1.0000000
N2   N   0.777759131205826   0.555546232269576   0.123707394682248   1.0000000
N2   N   0.611109771604712   0.055546879448137   0.125204969559707   1.0000000
N2   N   0.444453767730416   0.555546232269576   0.626292605317751   1.0000000
N2   N   0.944443465275404   0.055556534724594   0.125002098477114   1.0000000
N2   N   0.277776849462495   0.722223150537508   0.624722766743104   1.0000000
N2   N   0.111088085081110   0.222210709207215   0.625071073525423   1.0000000
N2   N   0.444453767730416   0.222240868794176   0.626292605317751   1.0000000
N2   N   0.611123811769560   0.722248867604036   0.625758938018333   1.0000000
N2   N   0.944442975228477   0.722218408456570   0.624774023160251   1.0000000
N2   N   0.777789290792783   0.222210709207215   0.625071073525423   1.0000000
N2   N   0.111112967741683   0.722223150537508   0.125277233256902   1.0000000
N2   N   0.444442099894755   0.722218408456570   0.125225976839747   1.0000000
N2   N   0.277751132395965   0.222208277498855   0.124241061981669   1.0000000
N2   N   0.777791722501143   0.722248867604036   0.124241061981669   1.0000000
N2   N   0.611123811769560   0.222208277498855   0.124241061981669   1.0000000
N2   N   0.944443465275404   0.222220263884147   0.125002098477114   1.0000000
N2   N   0.111103774510097   0.388890228395288   0.624795030440300   1.0000000
N2   N   0.277776849462495   0.888887032258318   0.624722766743104   1.0000000
N2   N   0.611109771604712   0.888896225489902   0.624795030440300   1.0000000
N2   N   0.444335499460492   0.388834416396907   0.629316332274119   1.0000000
N2   N   0.944453120551863   0.888896225489902   0.624795030440300   1.0000000
N2   N   0.111113785073134   0.888886214926863   0.125325821761518   1.0000000
N2   N   0.777791722501143   0.388876188230439   0.625758938018333   1.0000000
N2   N   0.444439096520411   0.888886214926863   0.125325821761518   1.0000000
N2   N   0.277751132395965   0.388876188230439   0.124241061981669   1.0000000
N2   N   0.277781591543433   0.555557900105246   0.125225976839747   1.0000000
N2   N   0.611165583603091   0.388834416396907   0.120683667725888   1.0000000
N2   N   0.777789290792783   0.888911914918889   0.124928926474575   1.0000000
N2   N   0.944453120551863   0.388890228395288   0.125204969559707   1.0000000
N2   N   0.111113785073134   0.555560903479588   0.624674178238482   1.0000000
N2   N   0.277781591543433   0.055557024771522   0.624774023160251   1.0000000
N2   N   0.777759131205826   0.555546232269576   0.626292605317751   1.0000000
N2   N   0.611109771604712   0.055546879448137   0.624795030440300   1.0000000
N2   N   0.944443465275404   0.055556534724594   0.624997901522885   1.0000000
N2   N   0.054188719532123   0.110228194985461   0.375000000000000   1.0000000
N2   N   0.555108785471011   0.622602441751754   0.375000000000000   1.0000000
N2   N   0.387131520211719   0.107596373756779   0.375000000000000   1.0000000
N2   N   0.892403626243219   0.612868479788282   0.375000000000000   1.0000000
N2   N   0.722706142119996   0.110228194985461   0.375000000000000   1.0000000
N2   N   0.055556176346159   0.777779928565955   0.875000000000000   1.0000000
N2   N   0.388890418886453   0.777779928565955   0.875000000000000   1.0000000
N2   N   0.222220400618119   0.277776866975722   0.875000000000000   1.0000000
N2   N   0.722223133024276   0.777779599381884   0.875000000000000   1.0000000
N2   N   0.555549923455293   0.277767230769910   0.875000000000000   1.0000000
N2   N   0.888890571379869   0.277779356269555   0.875000000000000   1.0000000
N2   N   0.222222222222221   0.777777777777779   0.375000000000000   1.0000000
N2   N   0.054188719532123   0.277293857879997   0.375000000000000   1.0000000
N2   N   0.377397558248244   0.265839677052589   0.375000000000000   1.0000000
N2   N   0.554959128159247   0.782426890577088   0.375000000000000   1.0000000
N2   N   0.894134429084509   0.782426890577088   0.375000000000000   1.0000000
N2   N   0.724373792954412   0.275626207045588   0.375000000000000   1.0000000
N2   N   0.055555386445825   0.944444613554177   0.875000000000000   1.0000000
N2   N   0.388890418886453   0.944443823653835   0.875000000000000   1.0000000
N2   N   0.222219445645775   0.444445463700251   0.875000000000000   1.0000000
N2   N   0.555555555555557   0.444444444444443   0.875000000000000   1.0000000
N2   N   0.722220643730446   0.944444548443652   0.875000000000000   1.0000000
N2   N   0.888892684721140   0.444445463700251   0.875000000000000   1.0000000
N2   N   0.055791928943423   0.444917191220167   0.375000000000000   1.0000000
N2   N   0.221679961260051   0.943088254024043   0.375000000000000   1.0000000
N2   N   0.555082808779834   0.944208071056579   0.375000000000000   1.0000000
N2   N   0.377397558248244   0.444891214528990   0.375000000000000   1.0000000
N2   N   0.889771805014538   0.945811280467870   0.375000000000000   1.0000000
N2   N   0.734160322947410   0.444891214528990   0.375000000000000   1.0000000
N2   N   0.222220071434046   0.611109581113545   0.875000000000000   1.0000000
N2   N   0.055555451556350   0.111109428620131   0.875000000000000   1.0000000
N2   N   0.555549923455293   0.611116026018719   0.875000000000000   1.0000000
N2   N   0.388885515004728   0.111104363342802   0.875000000000000   1.0000000
N2   N   0.888895636657202   0.611114484995269   0.875000000000000   1.0000000
N2   N   0.056911745975959   0.611925040569341   0.375000000000000   1.0000000
N2   N   0.722220643730446   0.111109428620131   0.875000000000000   1.0000000
N2   N   0.217573109422912   0.105865570915492   0.375000000000000   1.0000000
N2   N   0.387131520211719   0.612868479788282   0.375000000000000   1.0000000
N2   N   0.734160322947410   0.622602441751754   0.375000000000000   1.0000000
N2   N   0.554959128159247   0.105865570915492   0.375000000000000   1.0000000
N2   N   0.388885515004728   0.611114484995269   0.875000000000000   1.0000000
N2   N   0.888888888888886   0.111111111111114   0.375000000000000   1.0000000
N2   N   0.222222222222221   0.777777777777779   0.875000000000000   1.0000000
N2   N   0.055555451556350   0.277779356269555   0.875000000000000   1.0000000
N2   N   0.388883973981283   0.277767230769910   0.875000000000000   1.0000000
N2   N   0.555554536299758   0.777780554354222   0.875000000000000   1.0000000
N2   N   0.888892684721140   0.777780554354222   0.875000000000000   1.0000000
N2   N   0.722223133024276   0.277776866975722   0.875000000000000   1.0000000
N2   N   0.056911745975959   0.778320038739949   0.375000000000000   1.0000000
N2   N   0.388074959430660   0.778320038739949   0.375000000000000   1.0000000
N2   N   0.217919080757849   0.275626207045588   0.375000000000000   1.0000000
N2   N   0.724373792954412   0.782080919242159   0.375000000000000   1.0000000
N2   N   0.555108785471011   0.265839677052589   0.375000000000000   1.0000000
N2   N   0.889771805014538   0.277293857879997   0.375000000000000   1.0000000
N2   N   0.055555386445825   0.444444106224976   0.875000000000000   1.0000000
N2   N   0.222220071434046   0.944443823653835   0.875000000000000   1.0000000
N2   N   0.555555893775024   0.944444613554177   0.875000000000000   1.0000000
N2   N   0.388883973981283   0.444450076544708   0.875000000000000   1.0000000
N2   N   0.888890571379869   0.944444548443652   0.875000000000000   1.0000000
N2   N   0.055791928943423   0.944208071056579   0.375000000000000   1.0000000
N2   N   0.722232769230083   0.444450076544708   0.875000000000000   1.0000000
N2   N   0.388074959430660   0.943088254024043   0.375000000000000   1.0000000
N2   N   0.217573109422912   0.445040871840756   0.375000000000000   1.0000000
N2   N   0.221679961260051   0.611925040569341   0.375000000000000   1.0000000
N2   N   0.722706142119996   0.945811280467870   0.375000000000000   1.0000000
N2   N   0.894134429084509   0.445040871840756   0.375000000000000   1.0000000
N2   N   0.055556176346159   0.611109581113545   0.875000000000000   1.0000000
N2   N   0.222219445645775   0.111107315278860   0.875000000000000   1.0000000
N2   N   0.722232769230083   0.611116026018719   0.875000000000000   1.0000000
N2   N   0.555554536299758   0.111107315278860   0.875000000000000   1.0000000
N2   N   0.888888888888886   0.111111111111114   0.875000000000000   1.0000000
B2   B   0.108140086235464   0.053372641492204   0.375000000000000   1.0000000
B2   B   0.629396175587885   0.592125684509110   0.375000000000000   1.0000000
B2   B   0.443757476326482   0.052784926978104   0.375000000000000   1.0000000
B2   B   0.947215073021895   0.556242523673517   0.375000000000000   1.0000000
B2   B   0.778513045536434   0.055923189434888   0.375000000000000   1.0000000
B2   B   0.111115583876981   0.722224458605158   0.875000000000000   1.0000000
B2   B   0.444443697794991   0.722237947835369   0.875000000000000   1.0000000
B2   B   0.277752140240695   0.222204265916256   0.875000000000000   1.0000000
B2   B   0.777795734083744   0.722247859759303   0.875000000000000   1.0000000
B2   B   0.611118792342230   0.222204265916256   0.875000000000000   1.0000000
B2   B   0.944440158903226   0.222213651139791   0.875000000000000   1.0000000
B2   B   0.277365225937260   0.722634774062740   0.375000000000000   1.0000000
B2   B   0.107756363551599   0.220544848442467   0.375000000000000   1.0000000
B2   B   0.441613060318842   0.216559453971027   0.375000000000000   1.0000000
B2   B   0.612817684565843   0.732229454760933   0.375000000000000   1.0000000
B2   B   0.947215073021895   0.724305882681712   0.375000000000000   1.0000000
B2   B   0.779455151557532   0.220544848442467   0.375000000000000   1.0000000
B2   B   0.111108554153284   0.888891445846717   0.875000000000000   1.0000000
B2   B   0.444449558360095   0.888891445846717   0.875000000000000   1.0000000
B2   B   0.277752140240695   0.388881207657776   0.875000000000000   1.0000000
B2   B   0.611115724115867   0.388884275884131   0.875000000000000   1.0000000
B2   B   0.777789624825864   0.888912582985062   0.875000000000000   1.0000000
B2   B   0.944450544682289   0.388877278064723   0.875000000000000   1.0000000
B2   B   0.108140086235464   0.388100778076582   0.375000000000000   1.0000000
B2   B   0.277365225937260   0.888063785207855   0.375000000000000   1.0000000
B2   B   0.611899221923418   0.891859913764536   0.375000000000000   1.0000000
B2   B   0.407874315490891   0.370603824412113   0.375000000000000   1.0000000
B2   B   0.946627358507794   0.891859913764536   0.375000000000000   1.0000000
B2   B   0.786078436861769   0.387182315434156   0.375000000000000   1.0000000
B2   B   0.277762052164634   0.555556302205009   0.875000000000000   1.0000000
B2   B   0.111093400049107   0.055549455317713   0.875000000000000   1.0000000
B2   B   0.611115724115867   0.555564781565073   0.875000000000000   1.0000000
B2   B   0.444443697794991   0.055539083292959   0.875000000000000   1.0000000
B2   B   0.944460916707040   0.555556302205009   0.875000000000000   1.0000000
B2   B   0.111264638479997   0.555862610293316   0.375000000000000   1.0000000
B2   B   0.777786348860206   0.055559841096772   0.875000000000000   1.0000000
B2   B   0.275694117318286   0.052784926978104   0.375000000000000   1.0000000
B2   B   0.441613060318842   0.558386939681152   0.375000000000000   1.0000000
B2   B   0.783440546028972   0.558386939681152   0.375000000000000   1.0000000
B2   B   0.611899221923418   0.053372641492204   0.375000000000000   1.0000000
B2   B   0.444433192502413   0.555566807497584   0.875000000000000   1.0000000
B2   B   0.944076810565117   0.055923189434888   0.375000000000000   1.0000000
B2   B   0.277775541394845   0.722224458605158   0.875000000000000   1.0000000
B2   B   0.111087417014937   0.222210375174137   0.875000000000000   1.0000000
B2   B   0.444433192502413   0.222199718338171   0.875000000000000   1.0000000
B2   B   0.611118792342230   0.722247859759303   0.875000000000000   1.0000000
B2   B   0.944460916707040   0.722237947835369   0.875000000000000   1.0000000
B2   B   0.777789624825864   0.222210375174137   0.875000000000000   1.0000000
B2   B   0.111936214792144   0.722634774062740   0.375000000000000   1.0000000
B2   B   0.443757476326482   0.724305882681712   0.375000000000000   1.0000000
B2   B   0.267770545239068   0.213921563138240   0.375000000000000   1.0000000
B2   B   0.786078436861769   0.732229454760933   0.375000000000000   1.0000000
B2   B   0.612817684565843   0.213921563138240   0.375000000000000   1.0000000
B2   B   0.944076810565117   0.221486954463567   0.375000000000000   1.0000000
B2   B   0.111093400049107   0.388877278064723   0.875000000000000   1.0000000
B2   B   0.277775541394845   0.888884416123018   0.875000000000000   1.0000000
B2   B   0.611122721935286   0.888906599950894   0.875000000000000   1.0000000
B2   B   0.444435218434927   0.388884275884131   0.875000000000000   1.0000000
B2   B   0.944450544682289   0.888906599950894   0.875000000000000   1.0000000
B2   B   0.111264638479997   0.888735361520004   0.375000000000000   1.0000000
B2   B   0.777795734083744   0.388881207657776   0.875000000000000   1.0000000
B2   B   0.444137389706677   0.888735361520004   0.375000000000000   1.0000000
B2   B   0.267770545239068   0.387182315434156   0.375000000000000   1.0000000
B2   B   0.275694117318286   0.556242523673517   0.375000000000000   1.0000000
B2   B   0.629396175587885   0.370603824412113   0.375000000000000   1.0000000
B2   B   0.779455151557532   0.892243636448402   0.375000000000000   1.0000000
B2   B   0.946627358507794   0.388100778076582   0.375000000000000   1.0000000
B2   B   0.111108554153284   0.555550441639906   0.875000000000000   1.0000000
B2   B   0.277762052164634   0.055539083292959   0.875000000000000   1.0000000
B2   B   0.777800281661838   0.555566807497584   0.875000000000000   1.0000000
B2   B   0.611122721935286   0.055549455317713   0.875000000000000   1.0000000
B2   B   0.944440158903226   0.055559841096772   0.875000000000000   1.0000000
B2   B   0.055511502995471   0.111082967222572   0.124811749053162   1.0000000
B2   B   0.555582128933316   0.611200787457095   0.122219470179417   1.0000000
B2   B   0.388848183736954   0.111029700807251   0.124469346492202   1.0000000
B2   B   0.888970299192750   0.611151816263045   0.124469346492202   1.0000000
B2   B   0.722238130893755   0.111082967222572   0.124811749053162   1.0000000
B2   B   0.055601975424865   0.777795529035668   0.624952834986805   1.0000000
B2   B   0.388860220277466   0.777795529035668   0.624952834986805   1.0000000
B2   B   0.222107271298439   0.277720302315890   0.625940470464948   1.0000000
B2   B   0.722279697684109   0.777892728701563   0.625940470464948   1.0000000
B2   B   0.555582128933316   0.277714674809550   0.627780529820583   1.0000000
B2   B   0.888917032777427   0.277761869106240   0.625188250946839   1.0000000
B2   B   0.222222222222221   0.777777777777779   0.125017655872764   1.0000000
B2   B   0.055511502995471   0.277761869106240   0.124811749053162   1.0000000
B2   B   0.388799212542906   0.277714674809550   0.122219470179417   1.0000000
B2   B   0.555548452915657   0.777849466254871   0.124637123117256   1.0000000
B2   B   0.888967680005879   0.777849466254871   0.124637123117256   1.0000000
B2   B   0.722279697684109   0.277720302315890   0.124059529535049   1.0000000
B2   B   0.055562239125912   0.944437760874089   0.624977600698338   1.0000000
B2   B   0.388860220277466   0.944398024575134   0.624952834986805   1.0000000
B2   B   0.222150533745129   0.444451547084351   0.625362876882744   1.0000000
B2   B   0.555555555555557   0.444444444444443   0.629449088695705   1.0000000
B2   B   0.722238130893755   0.944488497004532   0.625188250946839   1.0000000
B2   B   0.888967680005879   0.444451547084351   0.625362876882744   1.0000000
B2   B   0.055562239125912   0.444457811585152   0.125022399301662   1.0000000
B2   B   0.222204470964332   0.944398024575134   0.125047165013195   1.0000000
B2   B   0.555542188414840   0.944437760874089   0.125022399301662   1.0000000
B2   B   0.388799212542906   0.444417871066692   0.122219470179417   1.0000000
B2   B   0.888917032777427   0.944488497004532   0.124811749053162   1.0000000
B2   B   0.722285325190450   0.444417871066692   0.122219470179417   1.0000000
B2   B   0.222204470964332   0.611139779722534   0.624952834986805   1.0000000
B2   B   0.055511502995471   0.111082967222572   0.625188250946839   1.0000000
B2   B   0.555582128933316   0.611200787457095   0.627780529820583   1.0000000
B2   B   0.388848183736954   0.111029700807251   0.625530653507798   1.0000000
B2   B   0.888970299192750   0.611151816263045   0.625530653507798   1.0000000
B2   B   0.055601975424865   0.611139779722534   0.125047165013195   1.0000000
B2   B   0.722238130893755   0.111082967222572   0.625188250946839   1.0000000
B2   B   0.222150533745129   0.111032319994122   0.124637123117256   1.0000000
B2   B   0.388848183736954   0.611151816263045   0.124469346492202   1.0000000
B2   B   0.722285325190450   0.611200787457095   0.122219470179417   1.0000000
B2   B   0.555548452915657   0.111032319994122   0.124637123117256   1.0000000
B2   B   0.388848183736954   0.611151816263045   0.625530653507798   1.0000000
B2   B   0.888888888888886   0.111111111111114   0.124767840659573   1.0000000
B2   B   0.222222222222221   0.777777777777779   0.624982344127236   1.0000000
B2   B   0.055511502995471   0.277761869106240   0.625188250946839   1.0000000
B2   B   0.388799212542906   0.277714674809550   0.627780529820583   1.0000000
B2   B   0.555548452915657   0.777849466254871   0.625362876882744   1.0000000
B2   B   0.888967680005879   0.777849466254871   0.625362876882744   1.0000000
B2   B   0.722279697684109   0.277720302315890   0.625940470464948   1.0000000
B2   B   0.055601975424865   0.777795529035668   0.125047165013195   1.0000000
B2   B   0.388860220277466   0.777795529035668   0.125047165013195   1.0000000
B2   B   0.222107271298439   0.277720302315890   0.124059529535049   1.0000000
B2   B   0.722279697684109   0.777892728701563   0.124059529535049   1.0000000
B2   B   0.555582128933316   0.277714674809550   0.122219470179417   1.0000000
B2   B   0.888917032777427   0.277761869106240   0.124811749053162   1.0000000
B2   B   0.055562239125912   0.444457811585152   0.624977600698338   1.0000000
B2   B   0.222204470964332   0.944398024575134   0.624952834986805   1.0000000
B2   B   0.555542188414840   0.944437760874089   0.624977600698338   1.0000000
B2   B   0.388799212542906   0.444417871066692   0.627780529820583   1.0000000
B2   B   0.888917032777427   0.944488497004532   0.625188250946839   1.0000000
B2   B   0.055562239125912   0.944437760874089   0.125022399301662   1.0000000
B2   B   0.722285325190450   0.444417871066692   0.627780529820583   1.0000000
B2   B   0.388860220277466   0.944398024575134   0.125047165013195   1.0000000
B2   B   0.222150533745129   0.444451547084351   0.124637123117256   1.0000000
B2   B   0.222204470964332   0.611139779722534   0.125047165013195   1.0000000
B2   B   0.555555555555557   0.444444444444443   0.120550911304294   1.0000000
B2   B   0.722238130893755   0.944488497004532   0.124811749053162   1.0000000
B2   B   0.888967680005879   0.444451547084351   0.124637123117256   1.0000000
B2   B   0.055601975424865   0.611139779722534   0.624952834986805   1.0000000
B2   B   0.222150533745129   0.111032319994122   0.625362876882744   1.0000000
B2   B   0.722285325190450   0.611200787457095   0.627780529820583   1.0000000
B2   B   0.555548452915657   0.111032319994122   0.625362876882744   1.0000000
B2   B   0.888888888888886   0.111111111111114   0.625232159340429   1.0000000


