data_1
_audit_creation_method   'vasp2cif'
_cell_length_a    14.93631414619966
_cell_length_b    14.936314146199727
_cell_length_c    13.341276283792837
_cell_angle_alpha    90.0
_cell_angle_beta    90.0
_cell_angle_gamma    119.99999999999984

_symmetry_space_group_name_H-M    'P 1'
loop_
_atom_site_label
_atom_site_type_symbol
_atom_site_fract_x
_atom_site_fract_y
_atom_site_fract_z
_atom_site_occupancy
Al2   Al   0.475434891694566   0.404384112513948   0.375000000000000   1.0000000
N2   N   0.111130866250320   0.055562265930504   0.124903004679971   1.0000000
N2   N   0.611206488956676   0.555681858820353   0.124089218826123   1.0000000
N2   N   0.444471901806097   0.055548897520387   0.124916065242883   1.0000000
N2   N   0.944468556719947   0.555563671871399   0.125036700709829   1.0000000
N2   N   0.777803772250231   0.055568552791783   0.125013771137600   1.0000000
N2   N   0.111128735696382   0.722231034514855   0.624979793481506   1.0000000
N2   N   0.444471901806097   0.722256337619045   0.625083934757117   1.0000000
N2   N   0.277795800203614   0.222219896578441   0.624893625015634   1.0000000
N2   N   0.777824124085005   0.722268256819248   0.625225338560134   1.0000000
N2   N   0.611149023209382   0.222204002895809   0.625292798852019   1.0000000
N2   N   0.944471092220316   0.222232765679126   0.625013500390362   1.0000000
N2   N   0.277797558161467   0.722236453695580   0.124998896677050   1.0000000
N2   N   0.111139328759649   0.222236331046493   0.124936317084419   1.0000000
N2   N   0.444493767372172   0.222216169116062   0.124983891159531   1.0000000
N2   N   0.611149023209382   0.722278353646909   0.124707201147981   1.0000000
N2   N   0.944468556719947   0.722238218181877   0.125036700709829   1.0000000
N2   N   0.777809145646491   0.222223191207905   0.124994190518611   1.0000000
N2   N   0.111130329796851   0.888898034131498   0.625002909067855   1.0000000
N2   N   0.444466371366278   0.888899852349800   0.625001222243715   1.0000000
N2   N   0.277795800203614   0.388909236958502   0.624893625015634   1.0000000
N2   N   0.611206488956676   0.388857963469651   0.625910781173877   1.0000000
N2   N   0.777809145646491   0.888919287771921   0.625005809481389   1.0000000
N2   N   0.944474480740319   0.388896151118207   0.624967765248051   1.0000000
N2   N   0.111130866250320   0.388901933653145   0.124903004679971   1.0000000
N2   N   0.277797558161467   0.888894437799224   0.124998896677050   1.0000000
N2   N   0.611135512550344   0.888915099712343   0.125002017935499   1.0000000
N2   N   0.444496019577504   0.388914676455416   0.127464320977282   1.0000000
N2   N   0.944474480740319   0.888911662955441   0.125032234751949   1.0000000
N2   N   0.777824124085005   0.388889200599093   0.124774661439866   1.0000000
N2   N   0.277803293076764   0.555578610938573   0.625041373024996   1.0000000
N2   N   0.111130866250320   0.055562265930504   0.625096995320030   1.0000000
N2   N   0.611206488956676   0.555681858820353   0.625910781173877   1.0000000
N2   N   0.444471901806097   0.055548897520387   0.625083934757117   1.0000000
N2   N   0.944468556719947   0.555563671871399   0.624963299290171   1.0000000
N2   N   0.111130329796851   0.555565628998682   0.124997090932145   1.0000000
N2   N   0.777803772250231   0.055568552791783   0.624986228862400   1.0000000
N2   N   0.277803293076764   0.055558015471535   0.124958626975004   1.0000000
N2   N   0.444493767372172   0.555610931589446   0.124983891159531   1.0000000
N2   N   0.777811150763250   0.555572242048293   0.124660788393640   1.0000000
N2   N   0.611135512550344   0.055553746171329   0.125002017935499   1.0000000
N2   N   0.444493767372172   0.555610931589446   0.625016108840468   1.0000000
N2   N   0.944471092220316   0.055571659874527   0.124986499609638   1.0000000
N2   N   0.277797558161467   0.722236453695580   0.625001103322950   1.0000000
N2   N   0.111139328759649   0.222236331046493   0.625063682915580   1.0000000
N2   N   0.444493767372172   0.222216169116062   0.625016108840468   1.0000000
N2   N   0.611149023209382   0.722278353646909   0.625292798852019   1.0000000
N2   N   0.944468556719947   0.722238218181877   0.624963299290171   1.0000000
N2   N   0.777809145646491   0.222223191207905   0.625005809481389   1.0000000
N2   N   0.111128735696382   0.722231034514855   0.125020206518494   1.0000000
N2   N   0.444471901806097   0.722256337619045   0.124916065242883   1.0000000
N2   N   0.277795800203614   0.222219896578441   0.125106374984366   1.0000000
N2   N   0.777824124085005   0.722268256819248   0.124774661439866   1.0000000
N2   N   0.611149023209382   0.222204002895809   0.124707201147981   1.0000000
N2   N   0.944471092220316   0.222232765679126   0.124986499609638   1.0000000
N2   N   0.111130866250320   0.388901933653145   0.625096995320030   1.0000000
N2   N   0.277797558161467   0.888894437799224   0.625001103322950   1.0000000
N2   N   0.611135512550344   0.888915099712343   0.624997982064501   1.0000000
N2   N   0.444496019577504   0.388914676455416   0.622535679022718   1.0000000
N2   N   0.944474480740319   0.888911662955441   0.624967765248051   1.0000000
N2   N   0.111130329796851   0.888898034131498   0.124997090932145   1.0000000
N2   N   0.777824124085005   0.388889200599093   0.625225338560134   1.0000000
N2   N   0.444466371366278   0.888899852349800   0.124998777756285   1.0000000
N2   N   0.277795800203614   0.388909236958502   0.125106374984366   1.0000000
N2   N   0.277803293076764   0.555578610938573   0.124958626975004   1.0000000
N2   N   0.611206488956676   0.388857963469651   0.124089218826123   1.0000000
N2   N   0.777809145646491   0.888919287771921   0.124994190518611   1.0000000
N2   N   0.944474480740319   0.388896151118207   0.125032234751949   1.0000000
N2   N   0.111130329796851   0.555565628998682   0.625002909067855   1.0000000
N2   N   0.277803293076764   0.055558015471535   0.625041373024996   1.0000000
N2   N   0.777811150763250   0.555572242048293   0.625339211606360   1.0000000
N2   N   0.611135512550344   0.055553746171329   0.624997982064501   1.0000000
N2   N   0.944471092220316   0.055571659874527   0.625013500390362   1.0000000
N2   N   0.055862992695919   0.111304646262433   0.375000000000000   1.0000000
N2   N   0.554771561657279   0.612886984327243   0.375000000000000   1.0000000
N2   N   0.387497802037678   0.106373652353668   0.375000000000000   1.0000000
N2   N   0.887775789814820   0.610554561574081   0.375000000000000   1.0000000
N2   N   0.722385454061620   0.110957983835653   0.375000000000000   1.0000000
N2   N   0.055548395414509   0.777775506320502   0.875000000000000   1.0000000
N2   N   0.388880428245094   0.777774887826750   0.875000000000000   1.0000000
N2   N   0.222215399371457   0.277774366352396   0.875000000000000   1.0000000
N2   N   0.722214968037872   0.777773523108430   0.875000000000000   1.0000000
N2   N   0.555542622034230   0.277768906793588   0.875000000000000   1.0000000
N2   N   0.888883492424057   0.277775962406340   0.875000000000000   1.0000000
N2   N   0.220895359498821   0.777114346416078   0.375000000000000   1.0000000
N2   N   0.055862992695919   0.277891679766822   0.375000000000000   1.0000000
N2   N   0.387662950212256   0.269701484363412   0.375000000000000   1.0000000
N2   N   0.555296659257230   0.778856755516837   0.375000000000000   1.0000000
N2   N   0.888082678235179   0.777366269251120   0.375000000000000   1.0000000
N2   N   0.722158407855388   0.277236578334716   0.375000000000000   1.0000000
N2   N   0.055546639382689   0.944440707769101   0.875000000000000   1.0000000
N2   N   0.388880428245094   0.944438873751673   0.875000000000000   1.0000000
N2   N   0.222213117490972   0.444438492513979   0.875000000000000   1.0000000
N2   N   0.555536903764956   0.444435118549142   0.875000000000000   1.0000000
N2   N   0.722213803811556   0.944440121571084   0.875000000000000   1.0000000
N2   N   0.888884836775212   0.444442095945948   0.875000000000000   1.0000000
N2   N   0.054644202223871   0.444342850118693   0.375000000000000   1.0000000
N2   N   0.220741773801330   0.942728557768489   0.375000000000000   1.0000000
N2   N   0.555366429282751   0.944349881308044   0.375000000000000   1.0000000
N2   N   0.387662950212256   0.451294799182173   0.375000000000000   1.0000000
N2   N   0.888908678805112   0.944630252989875   0.375000000000000   1.0000000
N2   N   0.721330680249325   0.444076066711756   0.375000000000000   1.0000000
N2   N   0.222212020138375   0.611105078597726   0.875000000000000   1.0000000
N2   N   0.055547248719641   0.111106705409935   0.875000000000000   1.0000000
N2   N   0.555542622034230   0.611107048573979   0.875000000000000   1.0000000
N2   N   0.388879870234101   0.111105915169163   0.875000000000000   1.0000000
N2   N   0.888886720688307   0.611110027010828   0.875000000000000   1.0000000
N2   N   0.054259068807503   0.610667602475952   0.375000000000000   1.0000000
N2   N   0.722213803811556   0.111107015573815   0.875000000000000   1.0000000
N2   N   0.221087351362724   0.109297814011533   0.375000000000000   1.0000000
N2   N   0.387497802037678   0.614457483017352   0.375000000000000   1.0000000
N2   N   0.721330680249325   0.610587946870898   0.375000000000000   1.0000000
N2   N   0.555296659257230   0.109773237073735   0.375000000000000   1.0000000
N2   N   0.388879870234101   0.611107288398281   0.875000000000000   1.0000000
N2   N   0.889155897490444   0.111244615411890   0.375000000000000   1.0000000
N2   N   0.222213368959590   0.777773351146463   0.875000000000000   1.0000000
N2   N   0.055547248719641   0.277773876643041   0.875000000000000   1.0000000
N2   N   0.388885262428743   0.277779633326770   0.875000000000000   1.0000000
N2   N   0.555545314630783   0.777774754998306   0.875000000000000   1.0000000
N2   N   0.888884836775212   0.777776074162607   0.875000000000000   1.0000000
N2   N   0.722214968037872   0.277774778262771   0.875000000000000   1.0000000
N2   N   0.054259068807503   0.776924799664893   0.375000000000000   1.0000000
N2   N   0.387949417879310   0.778456150652967   0.375000000000000   1.0000000
N2   N   0.223571763449241   0.278452548391292   0.375000000000000   1.0000000
N2   N   0.722158407855388   0.778255162854006   0.375000000000000   1.0000000
N2   N   0.554771561657279   0.275217910663372   0.375000000000000   1.0000000
N2   N   0.888908678805112   0.277611759148565   0.375000000000000   1.0000000
N2   N   0.055546639382689   0.444439264946909   0.875000000000000   1.0000000
N2   N   0.222212020138375   0.944440274873985   0.875000000000000   1.0000000
N2   N   0.555545628977122   0.944439481155225   0.875000000000000   1.0000000
N2   N   0.388885262428743   0.444438962435308   0.875000000000000   1.0000000
N2   N   0.888883492424057   0.944440863351053   0.875000000000000   1.0000000
N2   N   0.054644202223871   0.943634685438507   0.375000000000000   1.0000000
N2   N   0.722217433001174   0.444443244334800   0.875000000000000   1.0000000
N2   N   0.387949417879310   0.942826600559678   0.375000000000000   1.0000000
N2   N   0.221087351362724   0.445122870684533   0.375000000000000   1.0000000
N2   N   0.220741773801330   0.611346549366176   0.375000000000000   1.0000000
N2   N   0.722385454061620   0.944760803559310   0.375000000000000   1.0000000
N2   N   0.888082678235179   0.444049742317394   0.375000000000000   1.0000000
N2   N   0.055548395414509   0.611106222427343   0.875000000000000   1.0000000
N2   N   0.222213117490972   0.111107958310328   0.875000000000000   1.0000000
N2   N   0.722217433001174   0.611107521999709   0.875000000000000   1.0000000
N2   N   0.555545314630783   0.111103892965813   0.875000000000000   1.0000000
N2   N   0.888882953525209   0.111108143429272   0.875000000000000   1.0000000
B2   B   0.110550777394611   0.054840383999568   0.375000000000000   1.0000000
B2   B   0.612326813727266   0.559889504118134   0.375000000000000   1.0000000
B2   B   0.443931354736172   0.052995604494167   0.375000000000000   1.0000000
B2   B   0.943500312628718   0.555103528681726   0.375000000000000   1.0000000
B2   B   0.778162308660593   0.055747820996968   0.375000000000000   1.0000000
B2   B   0.111106418116288   0.722219875724808   0.875000000000000   1.0000000
B2   B   0.444429172681404   0.722214181878303   0.875000000000000   1.0000000
B2   B   0.277760563590735   0.222215934607584   0.875000000000000   1.0000000
B2   B   0.777773995244204   0.722222767969524   0.875000000000000   1.0000000
B2   B   0.611097467614850   0.222212063532830   0.875000000000000   1.0000000
B2   B   0.944445262046866   0.222220288308531   0.875000000000000   1.0000000
B2   B   0.276729093926217   0.722192750858135   0.375000000000000   1.0000000
B2   B   0.112430668796593   0.222882001064957   0.375000000000000   1.0000000
B2   B   0.442004513405701   0.215996254462060   0.375000000000000   1.0000000
B2   B   0.611269199454306   0.724110377278150   0.375000000000000   1.0000000
B2   B   0.943500312628718   0.721730117280327   0.375000000000000   1.0000000
B2   B   0.778012390832793   0.221893574029511   0.375000000000000   1.0000000
B2   B   0.111106044661547   0.888892048183790   0.875000000000000   1.0000000
B2   B   0.444431931103338   0.888882632218337   0.875000000000000   1.0000000
B2   B   0.277760563590735   0.388877962316480   0.875000000000000   1.0000000
B2   B   0.611096822840928   0.388877733477384   0.875000000000000   1.0000000
B2   B   0.777775386272053   0.888891087536569   0.875000000000000   1.0000000
B2   B   0.944445015512292   0.388883921477724   0.875000000000000   1.0000000
B2   B   0.110550777394611   0.389043726728364   0.375000000000000   1.0000000
B2   B   0.276729093926217   0.887869676401411   0.375000000000000   1.0000000
B2   B   0.611300061281057   0.889540057994462   0.375000000000000   1.0000000
B2   B   0.943908318360003   0.888645460456485   0.375000000000000   1.0000000
B2   B   0.777425571589867   0.388173903581536   0.375000000000000   1.0000000
B2   B   0.277765609776409   0.555545000701266   0.875000000000000   1.0000000
B2   B   0.111105472362385   0.055557780129434   0.875000000000000   1.0000000
B2   B   0.611096822840928   0.555552422696880   0.875000000000000   1.0000000
B2   B   0.444429172681404   0.055548324136437   0.875000000000000   1.0000000
B2   B   0.944445344858110   0.555553657575179   0.875000000000000   1.0000000
B2   B   0.109920031268543   0.555347698286093   0.375000000000000   1.0000000
B2   B   0.777775977226167   0.055554655279755   0.875000000000000   1.0000000
B2   B   0.276388037397495   0.053483931832060   0.375000000000000   1.0000000
B2   B   0.442004513405701   0.559341592276983   0.375000000000000   1.0000000
B2   B   0.777286633670453   0.555309983501898   0.375000000000000   1.0000000
B2   B   0.611300061281057   0.055093336619923   0.375000000000000   1.0000000
B2   B   0.444428044683990   0.555549649695083   0.875000000000000   1.0000000
B2   B   0.944909274876796   0.055923407957941   0.375000000000000   1.0000000
B2   B   0.277767521146428   0.722214324410303   0.875000000000000   1.0000000
B2   B   0.111105547054896   0.222219440194109   0.875000000000000   1.0000000
B2   B   0.444428044683990   0.222211728322251   0.875000000000000   1.0000000
B2   B   0.611097467614850   0.722218737415349   0.875000000000000   1.0000000
B2   B   0.944445344858110   0.722225020616266   0.875000000000000   1.0000000
B2   B   0.777775386272053   0.222217632068813   0.875000000000000   1.0000000
B2   B   0.109930732474017   0.721632032903673   0.375000000000000   1.0000000
B2   B   0.443931354736172   0.724269083575341   0.375000000000000   1.0000000
B2   B   0.278329528913786   0.220962154589946   0.375000000000000   1.0000000
B2   B   0.777425571589867   0.722585001341659   0.375000000000000   1.0000000
B2   B   0.611269199454306   0.220492155509492   0.375000000000000   1.0000000
B2   B   0.944909274876796   0.222319200252190   0.375000000000000   1.0000000
B2   B   0.111105472362385   0.388881025566273   0.875000000000000   1.0000000
B2   B   0.277767521146428   0.888886530069454   0.875000000000000   1.0000000
B2   B   0.611101146192474   0.888885537944946   0.875000000000000   1.0000000
B2   B   0.444425206326665   0.388879269829997   0.875000000000000   1.0000000
B2   B   0.944445015512292   0.888894427367896   0.875000000000000   1.0000000
B2   B   0.109920031268543   0.887905666315778   0.375000000000000   1.0000000
B2   B   0.777773995244204   0.388884560608008   0.875000000000000   1.0000000
B2   B   0.444098766689131   0.888716050011233   0.375000000000000   1.0000000
B2   B   0.278329528913786   0.390700707657161   0.375000000000000   1.0000000
B2   B   0.276388037397495   0.556237438898771   0.375000000000000   1.0000000
B2   B   0.612326813727266   0.385770642942461   0.375000000000000   1.0000000
B2   B   0.778012390832793   0.889452150136604   0.375000000000000   1.0000000
B2   B   0.943908318360003   0.388596191236847   0.375000000000000   1.0000000
B2   B   0.111106044661547   0.555547329811077   0.875000000000000   1.0000000
B2   B   0.277765609776409   0.055553942408479   0.875000000000000   1.0000000
B2   B   0.777773559680330   0.555553446506833   0.875000000000000   1.0000000
B2   B   0.611101146192474   0.055548941580857   0.875000000000000   1.0000000
B2   B   0.944445262046866   0.055558307071670   0.875000000000000   1.0000000
B2   B   0.055605334399770   0.111145918875003   0.124995412908175   1.0000000
B2   B   0.555577596261571   0.611177965123482   0.124536939209079   1.0000000
B2   B   0.388890949324289   0.111084619795710   0.124981076135019   1.0000000
B2   B   0.888939964047807   0.611136648690578   0.124885109070474   1.0000000
B2   B   0.722243521755060   0.111104978194335   0.124995947004716   1.0000000
B2   B   0.055604356299260   0.777811649938535   0.624987977454668   1.0000000
B2   B   0.388901871168374   0.777791855516183   0.625012756583505   1.0000000
B2   B   0.222252519404752   0.277792926369040   0.624762638232101   1.0000000
B2   B   0.722252968440903   0.777834537636395   0.625235222273609   1.0000000
B2   B   0.555577596261571   0.277732964471425   0.625463060790922   1.0000000
B2   B   0.888935332233241   0.277778052155272   0.624998887261864   1.0000000
B2   B   0.222252155047098   0.777792744190213   0.125002048673661   1.0000000
B2   B   0.055605334399770   0.277792748858102   0.124995412908175   1.0000000
B2   B   0.388798084086830   0.277602896995677   0.126038940855896   1.0000000
B2   B   0.555562738779539   0.777815900460221   0.124889258998284   1.0000000
B2   B   0.888950268702543   0.777836154400612   0.124931888382542   1.0000000
B2   B   0.722252968440903   0.277751764137843   0.124764777726391   1.0000000
B2   B   0.055605368071429   0.944488858720208   0.625003394352841   1.0000000
B2   B   0.388901871168374   0.944443348985526   0.625012756583505   1.0000000
B2   B   0.222245451984983   0.444455741289280   0.624970878504621   1.0000000
B2   B   0.555788678273702   0.444561005803519   0.624261773719016   1.0000000
B2   B   0.722243521755060   0.944471876894060   0.625004052995284   1.0000000
B2   B   0.888950268702543   0.444447447635274   0.625068111617458   1.0000000
B2   B   0.055605368071429   0.444449842684550   0.124996605647159   1.0000000
B2   B   0.222252959635955   0.944467739687613   0.125000935485827   1.0000000
B2   B   0.555565455993134   0.944449394663231   0.125004862067181   1.0000000
B2   B   0.388798084086830   0.444528520424490   0.126038940855896   1.0000000
B2   B   0.888935332233241   0.944490613411304   0.125001112738135   1.0000000
B2   B   0.722281962982713   0.444439968072231   0.124340186926091   1.0000000
B2   B   0.222252959635955   0.611118553281678   0.624999064514173   1.0000000
B2   B   0.055605334399770   0.111145918875003   0.625004587091825   1.0000000
B2   B   0.555577596261571   0.611177965123482   0.625463060790922   1.0000000
B2   B   0.388890949324289   0.111084619795710   0.625018923864981   1.0000000
B2   B   0.888939964047807   0.611136648690578   0.625114890929526   1.0000000
B2   B   0.055604356299260   0.611126039694061   0.125012022545332   1.0000000
B2   B   0.722243521755060   0.111104978194335   0.625004052995284   1.0000000
B2   B   0.222245451984983   0.111123044029039   0.125029121495379   1.0000000
B2   B   0.388890949324289   0.611139662861923   0.124981076135019   1.0000000
B2   B   0.722281962982713   0.611175328243818   0.124340186926091   1.0000000
B2   B   0.555562738779539   0.111080171652653   0.124889258998284   1.0000000
B2   B   0.388890949324289   0.611139662861923   0.625018923864981   1.0000000
B2   B   0.888928951851361   0.111131142592352   0.125001750684832   1.0000000
B2   B   0.222252155047098   0.777792744190213   0.624997951326339   1.0000000
B2   B   0.055605334399770   0.277792748858102   0.625004587091825   1.0000000
B2   B   0.388798084086830   0.277602896995677   0.623961059144104   1.0000000
B2   B   0.555562738779539   0.777815900460221   0.625110741001717   1.0000000
B2   B   0.888950268702543   0.777836154400612   0.625068111617458   1.0000000
B2   B   0.722252968440903   0.277751764137843   0.625235222273609   1.0000000
B2   B   0.055604356299260   0.777811649938535   0.125012022545332   1.0000000
B2   B   0.388901871168374   0.777791855516183   0.124987243416495   1.0000000
B2   B   0.222252519404752   0.277792926369040   0.125237361767898   1.0000000
B2   B   0.722252968440903   0.777834537636395   0.124764777726391   1.0000000
B2   B   0.555577596261571   0.277732964471425   0.124536939209079   1.0000000
B2   B   0.888935332233241   0.277778052155272   0.125001112738135   1.0000000
B2   B   0.055605368071429   0.444449842684550   0.625003394352841   1.0000000
B2   B   0.222252959635955   0.944467739687613   0.624999064514173   1.0000000
B2   B   0.555565455993134   0.944449394663231   0.624995137932819   1.0000000
B2   B   0.388798084086830   0.444528520424490   0.623961059144104   1.0000000
B2   B   0.888935332233241   0.944490613411304   0.624998887261864   1.0000000
B2   B   0.055605368071429   0.944488858720208   0.124996605647159   1.0000000
B2   B   0.722281962982713   0.444439968072231   0.625659813073909   1.0000000
B2   B   0.388901871168374   0.944443348985526   0.124987243416495   1.0000000
B2   B   0.222245451984983   0.444455741289280   0.125029121495379   1.0000000
B2   B   0.222252959635955   0.611118553281678   0.125000935485827   1.0000000
B2   B   0.555788678273702   0.444561005803519   0.125738226280984   1.0000000
B2   B   0.722243521755060   0.944471876894060   0.124995947004716   1.0000000
B2   B   0.888950268702543   0.444447447635274   0.124931888382542   1.0000000
B2   B   0.055604356299260   0.611126039694061   0.624987977454668   1.0000000
B2   B   0.222245451984983   0.111123044029039   0.624970878504621   1.0000000
B2   B   0.722281962982713   0.611175328243818   0.625659813073909   1.0000000
B2   B   0.555562738779539   0.111080171652653   0.625110741001717   1.0000000
B2   B   0.888928951851361   0.111131142592352   0.624998249315168   1.0000000


