data_1
_audit_creation_method   'vasp2cif'
_cell_length_a    17.52789999999977
_cell_length_b    17.52789999999977
_cell_length_c    15.0
_cell_angle_alpha    90.0
_cell_angle_beta    90.0
_cell_angle_gamma    119.99999999999916

_symmetry_space_group_name_H-M    'P 1'
loop_
_atom_site_label
_atom_site_type_symbol
_atom_site_fract_x
_atom_site_fract_y
_atom_site_fract_z
_atom_site_occupancy
Al2   Al   0.453973056168101   0.479374496387185   0.110624642747313   1.0000000
B2   B   0.907074127002270   0.954146446030319   0.111049205756614   1.0000000
B2   B   0.904182508501322   0.094772944387136   0.111052638401723   1.0000000
B2   B   0.903543393674660   0.237141906856097   0.111054910969230   1.0000000
B2   B   0.904519019081141   0.380464710657295   0.111030310983355   1.0000000
B2   B   0.907274115002552   0.524476656357280   0.111107018182008   1.0000000
B2   B   0.909422738800870   0.668665137625833   0.111154366043083   1.0000000
B2   B   0.908717429302201   0.812014764656384   0.111155368793917   1.0000000
B2   B   0.049554083576978   0.954280528353599   0.111074880122293   1.0000000
B2   B   0.046776300516811   0.094593714201263   0.111012718059615   1.0000000
B2   B   0.044834646314331   0.236628385505715   0.110955224029730   1.0000000
B2   B   0.044326112510387   0.380229868004249   0.110994751527880   1.0000000
B2   B   0.045774157302738   0.524476656357280   0.111107018182008   1.0000000
B2   B   0.048520960854330   0.668472017316655   0.111147788515702   1.0000000
B2   B   0.049731126219323   0.811782282980325   0.111146995487713   1.0000000
B2   B   0.191498342980504   0.954426781568996   0.111054890393658   1.0000000
B2   B   0.191465598561133   0.096781693017669   0.111020643508180   1.0000000
B2   B   0.185667303268713   0.234438274633354   0.110926537559086   1.0000000
B2   B   0.183732471270024   0.379262856807505   0.110940688579886   1.0000000
B2   B   0.183729096405579   0.524371948371217   0.111048045462529   1.0000000
B2   B   0.187814014772967   0.668665137625833   0.111154366043083   1.0000000
B2   B   0.190621061153007   0.811782282980325   0.111146995487713   1.0000000
B2   B   0.333296349169635   0.954280528353599   0.111074880122293   1.0000000
B2   B   0.333887710405538   0.096781693017669   0.111020643508180   1.0000000
B2   B   0.334450128200579   0.240328640451161   0.110870023072330   1.0000000
B2   B   0.319579795279933   0.375038662058046   0.110944114076499   1.0000000
B2   B   0.320343094170428   0.523262555134725   0.110786752284110   1.0000000
B2   B   0.326491712390979   0.669052244292845   0.111080552926415   1.0000000
B2   B   0.331868951303169   0.812014764656384   0.111155368793917   1.0000000
B2   B   0.475643934977047   0.954146446030319   0.111049205756614   1.0000000
B2   B   0.476389029633454   0.094593714201263   0.111012718059615   1.0000000
B2   B   0.477342587313645   0.234438274633354   0.110926537559086   1.0000000
B2   B   0.484030482728117   0.375038662058046   0.110944114076499   1.0000000
B2   B   0.463452678979316   0.676857872102364   0.111308856555788   1.0000000
B2   B   0.474421460210379   0.814425270741745   0.111095919938453   1.0000000
B2   B   0.618929174043136   0.953101703758489   0.111030808965163   1.0000000
B2   B   0.619163763390804   0.094772944387136   0.111052638401723   1.0000000
B2   B   0.620365355140392   0.236628385505715   0.110955224029730   1.0000000
B2   B   0.624102001486492   0.379262856807505   0.110940688579886   1.0000000
B2   B   0.631491076913319   0.523262555134722   0.110786752284110   1.0000000
B2   B   0.641976809072047   0.676857872102364   0.111308856555788   1.0000000
B2   B   0.619996373571345   0.811421131193662   0.111097490376433   1.0000000
B2   B   0.762744145664379   0.953101703758489   0.111030808965163   1.0000000
B2   B   0.761682106329505   0.094790885154002   0.111146425930167   1.0000000
B2   B   0.762171840686416   0.237141906856097   0.111054910969230   1.0000000
B2   B   0.764475371442860   0.380229868004249   0.110994751527880   1.0000000
B2   B   0.769214467913626   0.524371948371217   0.111048045462529   1.0000000
B2   B   0.771132147850887   0.669052244292845   0.111080552926415   1.0000000
B2   B   0.768575426480358   0.814425270741745   0.111095919938453   1.0000000
N2   N   0.954882933318123   0.906835782695122   0.111078527494394   1.0000000
N2   N   0.952558811067784   0.048097870047992   0.111006262715036   1.0000000
N2   N   0.950552972998982   0.189368071468624   0.110987181297466   1.0000000
N2   N   0.950374192483525   0.332060452692644   0.110983670102934   1.0000000
N2   N   0.952128459468829   0.475682499137638   0.111058932960467   1.0000000
N2   N   0.954677227206828   0.619901849610261   0.111123513312234   1.0000000
N2   N   0.955432488012346   0.763874537689372   0.111153060313523   1.0000000
N2   N   0.096838762850320   0.906764282595071   0.111060553917403   1.0000000
N2   N   0.096321530972757   0.049037933692469   0.111015626571196   1.0000000
N2   N   0.091910061611870   0.188429709333761   0.110928523867971   1.0000000
N2   N   0.090183985687813   0.331460457550333   0.110920909586099   1.0000000
N2   N   0.090408699479393   0.475487092910514   0.111039204060960   1.0000000
N2   N   0.093797330646452   0.619901849610261   0.111123513312234   1.0000000
N2   N   0.096132946441498   0.763694896196010   0.111141657416602   1.0000000
N2   N   0.238496516431747   0.906764282595071   0.111060553917403   1.0000000
N2   N   0.238981573715060   0.049390439187110   0.111011484212898   1.0000000
N2   N   0.238581193074816   0.191905350890044   0.110946549908122   1.0000000
N2   N   0.227714839133698   0.327358265244418   0.110922640892304   1.0000000
N2   N   0.227357248722798   0.474887866510112   0.110946549769459   1.0000000
N2   N   0.232660132365280   0.620024353783442   0.111073873569248   1.0000000
N2   N   0.237014757920026   0.763874537689372   0.111153060313523   1.0000000
N2   N   0.380525557619993   0.906835782695122   0.111078527494394   1.0000000
N2   N   0.381289110962713   0.049037933692469   0.111015626571196   1.0000000
N2   N   0.381896866058230   0.191905350890044   0.110946549908122   1.0000000
N2   N   0.383002140554491   0.337431572865982   0.110682350379315   1.0000000
N2   N   0.354170995961141   0.466392925479769   0.110590835669248   1.0000000
N2   N   0.370965955645677   0.620212882702070   0.111001217827770   1.0000000
N2   N   0.378624962533281   0.764527547751955   0.111113165562451   1.0000000
N2   N   0.523636353597035   0.907916546246194   0.110979124373420   1.0000000
N2   N   0.524113478779192   0.048097870047992   0.111006262715036   1.0000000
N2   N   0.525092355964892   0.188429709333761   0.110928523867971   1.0000000
N2   N   0.528216134353722   0.327358265244418   0.110922640892304   1.0000000
N2   N   0.540794637761610   0.466392925479769   0.110590835669248   1.0000000
N2   N   0.522750601501034   0.768600649905059   0.111185476065752   1.0000000
N2   N   0.667176967609757   0.905781226977527   0.110977689116286   1.0000000
N2   N   0.666770739515998   0.047556224666542   0.111077360907470   1.0000000
N2   N   0.667389518268626   0.189368071468624   0.110987181297466   1.0000000
N2   N   0.669849180105530   0.331460457550333   0.110920909586099   1.0000000
N2   N   0.676103326030304   0.474887866510112   0.110946549769459   1.0000000
N2   N   0.677819635298382   0.620212882702070   0.111001217827770   1.0000000
N2   N   0.674422756646026   0.768600649905059   0.111185476065752   1.0000000
N2   N   0.812852900892144   0.907916546246194   0.110979124373420   1.0000000
N2   N   0.809359904949538   0.047556224666542   0.111077360907470   1.0000000
N2   N   0.809021497286705   0.189468574773411   0.111114052386725   1.0000000
N2   N   0.810260680009111   0.332060452692644   0.110983670102934   1.0000000
N2   N   0.813651101675118   0.475487092910514   0.111039204060960   1.0000000
N2   N   0.815936929661166   0.620024353783442   0.111073873569248   1.0000000
N2   N   0.814475293461668   0.764527547751955   0.111113165562451   1.0000000
Se2   Se   0.522937981992201   0.617303255742380   0.110852611480029   1.0000000


