data_1
_audit_creation_method   'vasp2cif'
_cell_length_a    17.52789999999977
_cell_length_b    17.52789999999977
_cell_length_c    15.0
_cell_angle_alpha    90.0
_cell_angle_beta    90.0
_cell_angle_gamma    119.99999999999916

_symmetry_space_group_name_H-M    'P 1'
loop_
_atom_site_label
_atom_site_type_symbol
_atom_site_fract_x
_atom_site_fract_y
_atom_site_fract_z
_atom_site_occupancy
B2   B   0.905254297293557   0.953067708313591   0.111035033363421   1.0000000
B2   B   0.904664087735346   0.095337792431172   0.111044677456110   1.0000000
B2   B   0.904660212878131   0.237893217058405   0.111031271527647   1.0000000
B2   B   0.905258994740446   0.380766408619037   0.111016745072670   1.0000000
B2   B   0.907401039061779   0.524238420602984   0.111040377424449   1.0000000
B2   B   0.907329265354457   0.667948090283760   0.111073871572322   1.0000000
B2   B   0.907404659549411   0.811733893085434   0.111057953522068   1.0000000
B2   B   0.047745420689021   0.952256655501449   0.111020230735802   1.0000000
B2   B   0.046935184904744   0.094748157387513   0.111035477071372   1.0000000
B2   B   0.046743124375986   0.237654845309859   0.111016034702587   1.0000000
B2   B   0.046948784839743   0.380751169684878   0.111028459142070   1.0000000
B2   B   0.047743785649381   0.524059039934795   0.111031485453889   1.0000000
B2   B   0.048502265179628   0.667151257508642   0.111048635280785   1.0000000
B2   B   0.048506794603678   0.809915830344581   0.111036641687108   1.0000000
B2   B   0.190083035413336   0.951492306860015   0.111032271634873   1.0000000
B2   B   0.188268703184430   0.092596653266621   0.111058659703769   1.0000000
B2   B   0.188527022714463   0.236613015959589   0.111034906300059   1.0000000
B2   B   0.188527672303342   0.380497068642066   0.111024185045130   1.0000000
B2   B   0.188265655471289   0.524231507118825   0.111048220279622   1.0000000
B2   B   0.190085783549421   0.667140115881207   0.111056947187092   1.0000000
B2   B   0.190479852996028   0.809521864519340   0.111022759630259   1.0000000
B2   B   0.332849730880625   0.951498324675667   0.111048652179133   1.0000000
B2   B   0.332052151249240   0.092670507267146   0.111069890368762   1.0000000
B2   B   0.327742788508428   0.231510408354751   0.111003541848438   1.0000000
B2   B   0.330295296825409   0.379440242718125   0.110984763146608   1.0000000
B2   B   0.327746334300179   0.524813623936512   0.111009647560077   1.0000000
B2   B   0.332059177023594   0.667942222387889   0.111056147643279   1.0000000
B2   B   0.332860513040430   0.809914094455976   0.111057966488797   1.0000000
B2   B   0.475941472928873   0.952257412210282   0.111031361575548   1.0000000
B2   B   0.475763112036446   0.092600482196444   0.111039182162087   1.0000000
B2   B   0.475173903109936   0.231519089571006   0.110988303545143   1.0000000
B2   B   0.465315458117295   0.359230843239583   0.110984902601532   1.0000000
B2   B   0.465319178741199   0.534682495511031   0.111029079358492   1.0000000
B2   B   0.475188201864498   0.672255643099951   0.111005973510880   1.0000000
B2   B   0.475770544508616   0.811736122992517   0.111046785086478   1.0000000
B2   B   0.619251138145615   0.953052880741370   0.111030621068740   1.0000000
B2   B   0.619235754443526   0.094742369146827   0.111018969373140   1.0000000
B2   B   0.619512705873390   0.236611008904036   0.111004324937107   1.0000000
B2   B   0.620554680274142   0.379447890056350   0.110974441389498   1.0000000
B2   B   0.640771126498786   0.534686196600247   0.110991394144716   1.0000000
B2   B   0.620561391406765   0.669706303944500   0.110982446515406   1.0000000
B2   B   0.619505345226978   0.811474043832245   0.111018811225253   1.0000000
B2   B   0.762347794103034   0.953258653346311   0.111020210283630   1.0000000
B2   B   0.762109099936802   0.095340733939982   0.111036074635350   1.0000000
B2   B   0.762346463983991   0.237655297208357   0.111024201394047   1.0000000
B2   B   0.763391045153746   0.380489289772682   0.111005951592092   1.0000000
B2   B   0.768482724867592   0.524827907717244   0.110994169177308   1.0000000
B2   B   0.768490757496016   0.672258443479237   0.111002960105322   1.0000000
B2   B   0.763389173520451   0.811474919258515   0.111031145554755   1.0000000
N2   N   0.953380455257592   0.906006000477482   0.111018226690656   1.0000000
N2   N   0.952177907533116   0.047824798678982   0.111025826029873   1.0000000
N2   N   0.951956333848691   0.190262551486484   0.111016693539295   1.0000000
N2   N   0.952181404614487   0.332923224413268   0.111009026331442   1.0000000
N2   N   0.953382765607449   0.475948403612251   0.111008423023482   1.0000000
N2   N   0.953944001670127   0.619496941515165   0.111047279744311   1.0000000
N2   N   0.953945684236818   0.763015488742190   0.111047368880918   1.0000000
N2   N   0.095324291357619   0.904675428846474   0.110996365256502   1.0000000
N2   N   0.093995721722074   0.046621060568230   0.111020203220145   1.0000000
N2   N   0.093898204710341   0.189737189461474   0.111012357165364   1.0000000
N2   N   0.093904186269954   0.332727730135004   0.111006136618902   1.0000000
N2   N   0.093997178301286   0.475939675680488   0.111023695290591   1.0000000
N2   N   0.095322435109101   0.619209971254419   0.111024566418166   1.0000000
N2   N   0.095699247954798   0.762130259264929   0.111015952475020   1.0000000
N2   N   0.237870042271537   0.904300763941787   0.111012725440555   1.0000000
N2   N   0.236985491349846   0.046055389346657   0.111042716211523   1.0000000
N2   N   0.234030370552599   0.186693697033037   0.111037613812145   1.0000000
N2   N   0.235618720819485   0.332099489320094   0.111007819893021   1.0000000
N2   N   0.234037722755891   0.475912794998215   0.111019513679796   1.0000000
N2   N   0.236991041635339   0.619486917503270   0.111040419170635   1.0000000
N2   N   0.237872412853361   0.762127953065931   0.111034709311458   1.0000000
N2   N   0.380791549144960   0.904677688191068   0.111026356320838   1.0000000
N2   N   0.380505508075773   0.046057553775683   0.111046728516007   1.0000000
N2   N   0.379185209189104   0.186958172371519   0.111009073964045   1.0000000
N2   N   0.372750382753977   0.324962690049940   0.110937091838299   1.0000000
N2   N   0.372750451792530   0.476373098093689   0.110960806638383   1.0000000
N2   N   0.379200489124305   0.620801076375006   0.111017340108685   1.0000000
N2   N   0.380514613687898   0.763010351129295   0.111043039522108   1.0000000
N2   N   0.524061910268468   0.906004406782208   0.111022156440549   1.0000000
N2   N   0.524053836328197   0.046618885474133   0.111009069617532   1.0000000
N2   N   0.524084335143382   0.186699910576553   0.111000662353909   1.0000000
N2   N   0.523617159631011   0.324964880840247   0.110937743969153   1.0000000
N2   N   0.523628403522598   0.627251729235501   0.110957731875135   1.0000000
N2   N   0.524089462984092   0.765964394755322   0.111013630807232   1.0000000
N2   N   0.667274269392844   0.906097305398319   0.111007354356074   1.0000000
N2   N   0.667078513691834   0.047820471905655   0.111014834583828   1.0000000
N2   N   0.667269943625081   0.189738328970530   0.110999551779486   1.0000000
N2   N   0.667900408054129   0.332101391272362   0.110989313182323   1.0000000
N2   N   0.675038053355667   0.476385069145761   0.110945481498714   1.0000000
N2   N   0.675040573406087   0.627252562569012   0.110940013299338   1.0000000
N2   N   0.667903293442304   0.764383627801759   0.111001374590320   1.0000000
N2   N   0.810265887528845   0.906103070413227   0.111013034420172   1.0000000
N2   N   0.809739919668588   0.048046072543415   0.111023376374995   1.0000000
N2   N   0.809737740699172   0.190264800121963   0.111013060642919   1.0000000
N2   N   0.810263449999781   0.332731643230905   0.110999500777092   1.0000000
N2   N   0.813302883019590   0.475918122359034   0.111003844128202   1.0000000
N2   N   0.813044306977835   0.620816782471203   0.111012907666353   1.0000000
N2   N   0.813309309702059   0.765972615687947   0.111033361170581   1.0000000
As2   As   0.523803675102109   0.476198966532381   0.111227159092230   1.0000000


