data_1
_audit_creation_method   'vasp2cif'
_cell_length_a    17.52789999999977
_cell_length_b    17.52789999999977
_cell_length_c    15.0
_cell_angle_alpha    90.0
_cell_angle_beta    90.0
_cell_angle_gamma    119.99999999999916

_symmetry_space_group_name_H-M    'P 1'
loop_
_atom_site_label
_atom_site_type_symbol
_atom_site_fract_x
_atom_site_fract_y
_atom_site_fract_z
_atom_site_occupancy
Sb2   Sb   0.400746347480193   0.486569262539236   0.995329004218327   1.0000000
B2   B   0.907390742360865   0.951337675784958   0.110704396899545   1.0000000
B2   B   0.908433326490358   0.095289663655940   0.111179340855114   1.0000000
B2   B   0.908840539830469   0.238373812388587   0.111040540469361   1.0000000
B2   B   0.909303220277505   0.381158907447595   0.111906525661714   1.0000000
B2   B   0.910334783995989   0.523902342682444   0.110960887535736   1.0000000
B2   B   0.908586487057408   0.666050271079028   0.108970938642156   1.0000000
B2   B   0.901511005887366   0.803046287508758   0.108979129272602   1.0000000
B2   B   0.047982815795450   0.950145183221187   0.112268193540048   1.0000000
B2   B   0.050289335706117   0.094389432097958   0.115863581766993   1.0000000
B2   B   0.051521774959585   0.238150142072661   0.114399865981435   1.0000000
B2   B   0.051852297261821   0.381446244301494   0.114683564322797   1.0000000
B2   B   0.051711343816053   0.524696922981451   0.115174951806559   1.0000000
B2   B   0.051107242784021   0.667517430130527   0.110689205663294   1.0000000
B2   B   0.049477116483416   0.809490229905808   0.108767992687762   1.0000000
B2   B   0.192780930658821   0.953154300573408   0.111830791154953   1.0000000
B2   B   0.192989064643240   0.095055509066900   0.117872026973504   1.0000000
B2   B   0.193397980696159   0.237228909578676   0.115328739898158   1.0000000
B2   B   0.194597621642855   0.381551131009875   0.105304740773862   1.0000000
B2   B   0.193096396045680   0.525389404353201   0.116389395789867   1.0000000
B2   B   0.193109615516629   0.668626561760709   0.116588483017369   1.0000000
B2   B   0.192959415479525   0.811110251193480   0.110747391408529   1.0000000
B2   B   0.336131682804211   0.954599972921337   0.110609707684640   1.0000000
B2   B   0.336692676563572   0.096615293104072   0.116345675656251   1.0000000
B2   B   0.338144530245742   0.239106515123776   0.119487993931961   1.0000000
B2   B   0.334029134280489   0.371138349441428   0.084592300764468   1.0000000
B2   B   0.332189569179966   0.532155901301008   0.086055424802783   1.0000000
B2   B   0.334809491982765   0.670446964233032   0.121189881842480   1.0000000
B2   B   0.335652416018705   0.812549998965712   0.115680365994813   1.0000000
B2   B   0.479072180806522   0.955528216382367   0.110525817747290   1.0000000
B2   B   0.479895802864143   0.097852688595943   0.111070270033607   1.0000000
B2   B   0.480964466685134   0.240351100077735   0.117240905179950   1.0000000
B2   B   0.485737871090338   0.385748925217009   0.107382251770306   1.0000000
B2   B   0.475414668701839   0.670790330944488   0.116572711918718   1.0000000
B2   B   0.478147650598151   0.813531754140896   0.118469444807352   1.0000000
B2   B   0.622015424424071   0.956322498447066   0.110302062199943   1.0000000
B2   B   0.622715412855524   0.098390664177693   0.107551180010418   1.0000000
B2   B   0.623677195310561   0.241771266456930   0.111451032289227   1.0000000
B2   B   0.625033057177808   0.387091239134059   0.114699720195045   1.0000000
B2   B   0.554841159138070   0.502473553844675   0.102342168498951   1.0000000
B2   B   0.611459089618125   0.685473737642381   0.121266721258078   1.0000000
B2   B   0.620917921225370   0.816351019982273   0.118891075939722   1.0000000
B2   B   0.765614685480490   0.953502155792246   0.110369113574768   1.0000000
B2   B   0.765673582847736   0.096425511587318   0.107685014080511   1.0000000
B2   B   0.766089231189679   0.238971132260459   0.108772044678313   1.0000000
B2   B   0.766948277815350   0.381191770118543   0.111585240298135   1.0000000
B2   B   0.770301867590328   0.522726816908383   0.112101861930591   1.0000000
B2   B   0.753411703041838   0.647717785550591   0.109828779357568   1.0000000
B2   B   0.766221706119118   0.809179738969492   0.113820092355052   1.0000000
N2   N   0.950983837663330   0.900058859047806   0.110484332964521   1.0000000
N2   N   0.954982194619128   0.046505377056279   0.112496701688099   1.0000000
N2   N   0.956298180913116   0.190502287281545   0.112477471058713   1.0000000
N2   N   0.956881295422024   0.333555670380680   0.112831572673889   1.0000000
N2   N   0.957255585645419   0.476374817822374   0.112423175981338   1.0000000
N2   N   0.956233175246713   0.619090916380221   0.109619240424681   1.0000000
N2   N   0.953305791127069   0.760382871845933   0.108101294368097   1.0000000
N2   N   0.096942090561791   0.904398277538503   0.110387014694565   1.0000000
N2   N   0.096864945350111   0.046078800063380   0.116010115571251   1.0000000
N2   N   0.098351739424671   0.189864863450564   0.117268637213726   1.0000000
N2   N   0.099955173793429   0.333951747726323   0.112992629571471   1.0000000
N2   N   0.098882058843056   0.476858065481335   0.117608204413203   1.0000000
N2   N   0.098532613387928   0.620041856036046   0.114143736992585   1.0000000
N2   N   0.097656565711887   0.762644420993427   0.109180210719545   1.0000000
N2   N   0.240775378604534   0.906225668345881   0.110030496441020   1.0000000
N2   N   0.241058864550245   0.048330139063972   0.115857049937927   1.0000000
N2   N   0.241932791533366   0.190876933181410   0.119539698715005   1.0000000
N2   N   0.241563845441762   0.332360504559873   0.102930451075356   1.0000000
N2   N   0.240838672028351   0.478117522933082   0.104739228794026   1.0000000
N2   N   0.240511505816111   0.620969123571725   0.119789221491268   1.0000000
N2   N   0.240727405006062   0.763835687454337   0.114309432083209   1.0000000
N2   N   0.383922968894451   0.907334874351390   0.111313669996348   1.0000000
N2   N   0.384497920146443   0.049710865810321   0.111887151525709   1.0000000
N2   N   0.385577892683049   0.192048222995027   0.120336087509066   1.0000000
N2   N   0.387941925998043   0.334999520164136   0.110206901545986   1.0000000
N2   N   0.382257229816808   0.622622092813143   0.114941038207059   1.0000000
N2   N   0.383482679133320   0.765248404918134   0.121047289434983   1.0000000
N2   N   0.526850585060109   0.907867835724034   0.112674505346541   1.0000000
N2   N   0.527432873764092   0.050360514769605   0.108380835228411   1.0000000
N2   N   0.528340051839913   0.193184881649405   0.113311751495607   1.0000000
N2   N   0.529764931711778   0.336541323156335   0.116005949440139   1.0000000
N2   N   0.497447152923418   0.537114885889709   0.097378830022597   1.0000000
N2   N   0.527538383711486   0.625587304025910   0.111472826200601   1.0000000
N2   N   0.526208041324621   0.765509703622537   0.120903057904183   1.0000000
N2   N   0.670023189453820   0.908645297726403   0.112457514563013   1.0000000
N2   N   0.670296264713167   0.050426063873331   0.106964003086523   1.0000000
N2   N   0.670823465324064   0.193360921993519   0.108324450908442   1.0000000
N2   N   0.671927148988375   0.337654405387227   0.112989395735297   1.0000000
N2   N   0.677881254773476   0.483858395684482   0.114428298791050   1.0000000
N2   N   0.653441097129126   0.552799457747207   0.110206805386854   1.0000000
N2   N   0.671983407568043   0.769722431204751   0.122900850970778   1.0000000
N2   N   0.812042405003959   0.903639930006233   0.110385537071336   1.0000000
N2   N   0.813023904315018   0.047984204765808   0.108711439221817   1.0000000
N2   N   0.813616557596691   0.191144373605794   0.108321089893961   1.0000000
N2   N   0.814202697326041   0.333613953139021   0.110342454711719   1.0000000
N2   N   0.816069244161273   0.475387272393325   0.111454554986277   1.0000000
N2   N   0.813521442788776   0.616492209807472   0.110019863225644   1.0000000
N2   N   0.801180694545774   0.749833465014339   0.109693513783831   1.0000000


