data_1
_audit_creation_method   'vasp2cif'
_cell_length_a    17.52789999999977
_cell_length_b    17.52789999999977
_cell_length_c    15.0
_cell_angle_alpha    90.0
_cell_angle_beta    90.0
_cell_angle_gamma    119.99999999999916

_symmetry_space_group_name_H-M    'P 1'
loop_
_atom_site_label
_atom_site_type_symbol
_atom_site_fract_x
_atom_site_fract_y
_atom_site_fract_z
_atom_site_occupancy
B2   B   0.904965748162632   0.952288983637170   0.111015329645560   1.0000000
B2   B   0.904880413515008   0.095121607680988   0.111048287394172   1.0000000
B2   B   0.904883977218771   0.237943159410405   0.111052005748696   1.0000000
B2   B   0.904871686418378   0.380835071648994   0.111017080341085   1.0000000
B2   B   0.904930433135552   0.523808667850058   0.111015237969015   1.0000000
B2   B   0.904779835856290   0.666506082527890   0.111060489813420   1.0000000
B2   B   0.904738283289664   0.809303813915929   0.111047713248640   1.0000000
B2   B   0.047642583367542   0.952359437828462   0.111018191944228   1.0000000
B2   B   0.047713037558833   0.095036273033364   0.111015329645560   1.0000000
B2   B   0.047505844177298   0.237660015422724   0.111009699283499   1.0000000
B2   B   0.047322071421462   0.380868463244129   0.111021054141730   1.0000000
B2   B   0.047171649843502   0.523950045416420   0.111013856124376   1.0000000
B2   B   0.047389217404859   0.666857971522778   0.111035182550054   1.0000000
B2   B   0.047545313627167   0.809630862373509   0.111007746775653   1.0000000
B2   B   0.190371158822495   0.952456707568836   0.111007746775653   1.0000000
B2   B   0.190698207280075   0.095263737906332   0.111047713248640   1.0000000
B2   B   0.190406592459318   0.237598439983360   0.110985744978029   1.0000000
B2   B   0.190071935006957   0.380742373665505   0.110980232859700   1.0000000
B2   B   0.189174620729267   0.524002502186362   0.111049475951053   1.0000000
B2   B   0.189670048068391   0.667054027734942   0.111051471501975   1.0000000
B2   B   0.190154315410870   0.809847705785134   0.111015417096841   1.0000000
B2   B   0.333144049674220   0.952612803791144   0.111035182550054   1.0000000
B2   B   0.333495938669108   0.095222185339707   0.111060489813420   1.0000000
B2   B   0.334601982043989   0.238516972239708   0.111040270436833   1.0000000
B2   B   0.333825413663322   0.379171177651476   0.111019373928478   1.0000000
B2   B   0.331342226601138   0.525735737060669   0.110989478711619   1.0000000
B2   B   0.332086621895182   0.667915399301816   0.111054270418141   1.0000000
B2   B   0.332947993462056   0.810331973127612   0.111051471501975   1.0000000
B2   B   0.476051975780578   0.952830371352501   0.111013856124376   1.0000000
B2   B   0.476193353346940   0.095071588060444   0.111015237969015   1.0000000
B2   B   0.476640559553678   0.237441912128910   0.111050141637646   1.0000000
B2   B   0.479379420287135   0.381527718073909   0.111156249762271   1.0000000
B2   B   0.474266284136329   0.668659794595860   0.110989478711619   1.0000000
B2   B   0.475999519010636   0.810827400466736   0.111049475951053   1.0000000
B2   B   0.619133557951875   0.952679949774542   0.111021054141730   1.0000000
B2   B   0.619166949547009   0.095130334777618   0.111017080341085   1.0000000
B2   B   0.619427499269915   0.237582072193874   0.111022598296070   1.0000000
B2   B   0.620060595145749   0.379941426050254   0.111045119690537   1.0000000
B2   B   0.618474303122095   0.520622600909863   0.111156249762271   1.0000000
B2   B   0.620830843544528   0.666176607533676   0.111019373928478   1.0000000
B2   B   0.619259647530499   0.809930086189047   0.110980232859700   1.0000000
B2   B   0.762342005773280   0.952496177018705   0.111009699283499   1.0000000
B2   B   0.762058861785599   0.095118043977225   0.111052005748696   1.0000000
B2   B   0.762094290600239   0.237907730595765   0.111070805194134   1.0000000
B2   B   0.762419949002129   0.380574521926088   0.111022598296070   1.0000000
B2   B   0.762560109067093   0.523361461643320   0.111050141637646   1.0000000
B2   B   0.761485048956296   0.665400039153009   0.111040270436833   1.0000000
B2   B   0.762403581212643   0.809595428736685   0.110985744978029   1.0000000
N2   N   0.952264975577259   0.904518054866981   0.111006583082657   1.0000000
N2   N   0.952481150554076   0.047520251363929   0.111011399377917   1.0000000
N2   N   0.952509203447421   0.190345092195737   0.111019647813057   1.0000000
N2   N   0.952433809973701   0.333145621010421   0.111009758927340   1.0000000
N2   N   0.952331554108526   0.476095041679079   0.110978363330760   1.0000000
N2   N   0.952279095994141   0.619005327668995   0.111018703648766   1.0000000
N2   N   0.952203394536292   0.761769623151747   0.111028972419172   1.0000000
N2   N   0.095159737731812   0.904841664186186   0.110987836543464   1.0000000
N2   N   0.095483347051018   0.047736426340747   0.111006583082657   1.0000000
N2   N   0.095387548761705   0.190374470508272   0.110974255530807   1.0000000
N2   N   0.095234216859867   0.333205383624369   0.110976999999885   1.0000000
N2   N   0.094622729008125   0.476124222610430   0.111000817562803   1.0000000
N2   N   0.094865055093956   0.619153159625415   0.111020340324195   1.0000000
N2   N   0.095085947199445   0.762035174522937   0.110988993592070   1.0000000
N2   N   0.237966227395069   0.904915454718554   0.110988993592070   1.0000000
N2   N   0.238231778766258   0.047798007381713   0.111028972419172   1.0000000
N2   N   0.238940163770897   0.191059699964010   0.111002967569933   1.0000000
N2   N   0.238081282835840   0.333154489692260   0.110952109818330   1.0000000
N2   N   0.236495705203963   0.476164980435568   0.110997320269846   1.0000000
N2   N   0.237280650912808   0.619302099180191   0.111027267321737   1.0000000
N2   N   0.237825130996964   0.762176270921042   0.111028422547792   1.0000000
N2   N   0.380848242292584   0.905136346824043   0.111020340324195   1.0000000
N2   N   0.380996074249004   0.047722305923864   0.111018703648766   1.0000000
N2   N   0.381464560215403   0.190540792905739   0.111037731497210   1.0000000
N2   N   0.383494270598999   0.334549442553279   0.111043580757648   1.0000000
N2   N   0.370102230554792   0.472031866909546   0.110858292312479   1.0000000
N2   N   0.379753717312420   0.620247684605579   0.111001379507606   1.0000000
N2   N   0.380699302737808   0.762720751005198   0.111027267321737   1.0000000
N2   N   0.523877179306567   0.905378672909873   0.111000817562803   1.0000000
N2   N   0.523906360237917   0.047669847809480   0.110978363330760   1.0000000
N2   N   0.524146702331402   0.190147372902933   0.111007654494798   1.0000000
N2   N   0.524835760639590   0.332624289226872   0.111029584235979   1.0000000
N2   N   0.527969535007450   0.629899171363207   0.110858292312479   1.0000000
N2   N   0.523836421481429   0.763505696714043   0.110997320269846   1.0000000
N2   N   0.666796018292628   0.904767185058131   0.110976999999885   1.0000000
N2   N   0.666855780906576   0.047567591944305   0.111009758927340   1.0000000
N2   N   0.666979148617230   0.190163095001786   0.111027853612882   1.0000000
N2   N   0.667337489579543   0.332663912337454   0.111003860406486   1.0000000
N2   N   0.667377112690124   0.475165641277406   0.111029584235979   1.0000000
N2   N   0.665451959363718   0.616507131319000   0.111043580757648   1.0000000
N2   N   0.666846912224736   0.761920119082166   0.110952109818330   1.0000000
N2   N   0.809626931409726   0.904613853156294   0.110974255530807   1.0000000
N2   N   0.809656309722262   0.047492198470585   0.111019647813057   1.0000000
N2   N   0.809738008560762   0.190263393357237   0.111049049689656   1.0000000
N2   N   0.809838306916212   0.333022253299767   0.111027853612882   1.0000000
N2   N   0.809854029015065   0.475854699585594   0.111007654494798   1.0000000
N2   N   0.809460609012260   0.618536841702595   0.111037731497210   1.0000000
N2   N   0.808941701953989   0.761061238147109   0.111002967569933   1.0000000
O2   O   0.527459719494095   0.472541682422902   0.111305342855494   1.0000000


