data_1
_audit_creation_method   'vasp2cif'
_cell_length_a    17.52789999999977
_cell_length_b    17.52789999999977
_cell_length_c    15.0
_cell_angle_alpha    90.0
_cell_angle_beta    90.0
_cell_angle_gamma    119.99999999999916

_symmetry_space_group_name_H-M    'P 1'
loop_
_atom_site_label
_atom_site_type_symbol
_atom_site_fract_x
_atom_site_fract_y
_atom_site_fract_z
_atom_site_occupancy
B2   B   0.905658795114171   0.952983477882860   0.111063405841122   1.0000000
B2   B   0.904561961113167   0.095444302829520   0.111056059388183   1.0000000
B2   B   0.904198210621260   0.238312591483975   0.111055658023126   1.0000000
B2   B   0.904215690351563   0.381138025406933   0.111018701778356   1.0000000
B2   B   0.904666410441891   0.523866398328678   0.111088325373522   1.0000000
B2   B   0.906199418757438   0.666957511508940   0.111200913595880   1.0000000
B2   B   0.906950599824015   0.810695392748784   0.111169623351294   1.0000000
B2   B   0.048180152107335   0.951820865200091   0.111116461568045   1.0000000
B2   B   0.047020701468163   0.094344236401071   0.111093888328511   1.0000000
B2   B   0.046764276947691   0.237497527804415   0.111080074312817   1.0000000
B2   B   0.047266756260790   0.380550285959984   0.111023454248439   1.0000000
B2   B   0.048283930391705   0.523261601945855   0.110961606486541   1.0000000
B2   B   0.048781456170950   0.666070973418670   0.111093031519779   1.0000000
B2   B   0.048816139979991   0.809057532655331   0.111163355321104   1.0000000
B2   B   0.190942006870998   0.951182522401659   0.111160454585530   1.0000000
B2   B   0.189305400038137   0.093048540805903   0.111169014908825   1.0000000
B2   B   0.188337786889811   0.235677303075718   0.111001257577278   1.0000000
B2   B   0.189546603976460   0.379493498920773   0.110966699813481   1.0000000
B2   B   0.192095351004802   0.522504665375372   0.110986248052754   1.0000000
B2   B   0.191964142495372   0.665421779143408   0.111010726176417   1.0000000
B2   B   0.191587849715219   0.808411465151075   0.111058715907177   1.0000000
B2   B   0.333929309607633   0.951216120157717   0.111089429453962   1.0000000
B2   B   0.333042737655546   0.093797020094549   0.111167974080665   1.0000000
B2   B   0.329943906054488   0.233815866549875   0.110900808850097   1.0000000
B2   B   0.329208172122563   0.376424533081320   0.110511312676103   1.0000000
B2   B   0.336671326711979   0.521137626372990   0.110875081017497   1.0000000
B2   B   0.335438853340740   0.664563236507142   0.111057382354488   1.0000000
B2   B   0.334580199074907   0.808036503386880   0.111009111620071   1.0000000
B2   B   0.476741487070534   0.951716847469868   0.110942989271457   1.0000000
B2   B   0.476136704199945   0.095331556925636   0.111065716941148   1.0000000
B2   B   0.475119368999607   0.238836390820523   0.111144350868500   1.0000000
B2   B   0.468417171771009   0.377323201957601   0.110527086402023   1.0000000
B2   B   0.478863092451746   0.663330817789216   0.110878352452787   1.0000000
B2   B   0.477498228032189   0.807907226628011   0.110963125557483   1.0000000
B2   B   0.619454400033220   0.952737597174981   0.110971829788042   1.0000000
B2   B   0.618866567414415   0.095788085164926   0.110994699720564   1.0000000
B2   B   0.618313909793848   0.239189219141707   0.111164217473231   1.0000000
B2   B   0.617250029025989   0.382748712071034   0.111176707160695   1.0000000
B2   B   0.622671829366332   0.531582380524021   0.110596801651830   1.0000000
B2   B   0.623576763346790   0.670794425102038   0.110562353184967   1.0000000
B2   B   0.620511844314827   0.810459735473877   0.110938989713006   1.0000000
B2   B   0.762509384762822   0.953243129604878   0.111021096364574   1.0000000
B2   B   0.761692916942891   0.095807129377988   0.111023658934201   1.0000000
B2   B   0.761259224478444   0.238745133517526   0.111136378494209   1.0000000
B2   B   0.760811622945148   0.381688640538769   0.111180558640427   1.0000000
B2   B   0.761158854420252   0.524880513573365   0.111200080432646   1.0000000
B2   B   0.766182481099932   0.670054684845425   0.110962251778858   1.0000000
B2   B   0.764324907401530   0.811666569367461   0.110988989084994   1.0000000
N2   N   0.953489660136832   0.905358374794304   0.111068314891341   1.0000000
N2   N   0.952257827845692   0.047746356962683   0.111026141899416   1.0000000
N2   N   0.951717437349551   0.190505532521705   0.111037539586150   1.0000000
N2   N   0.951877115826747   0.333478482779157   0.110980072708806   1.0000000
N2   N   0.952510308025708   0.476258702927723   0.110942169692265   1.0000000
N2   N   0.953357970406472   0.618978909907554   0.111112309706776   1.0000000
N2   N   0.953764929498263   0.762116089358372   0.111183032626862   1.0000000
N2   N   0.095902691759193   0.904096994914163   0.111104142025518   1.0000000
N2   N   0.094642397109673   0.046510019360156   0.111088325264305   1.0000000
N2   N   0.093721497476011   0.189159050611558   0.111067324552657   1.0000000
N2   N   0.094413975468470   0.332624484979739   0.111038595899075   1.0000000
N2   N   0.096195946928347   0.475675232395993   0.110947000684888   1.0000000
N2   N   0.096459922836701   0.618383084605206   0.110966296223260   1.0000000
N2   N   0.096361529639992   0.761217211011520   0.111073262689693   1.0000000
N2   N   0.238783439463027   0.903638160589836   0.111073471148032   1.0000000
N2   N   0.237885632053931   0.046233848354525   0.111169930119438   1.0000000
N2   N   0.235527712879403   0.187561977056973   0.111055761146744   1.0000000
N2   N   0.235017953509420   0.330370081870939   0.110823639494647   1.0000000
N2   N   0.240032119450703   0.474640998000694   0.110913037650036   1.0000000
N2   N   0.239879820953448   0.617706510583069   0.110998821000749   1.0000000
N2   N   0.239322407014065   0.760677735956186   0.110993411550460   1.0000000
N2   N   0.381618779778655   0.903540544910399   0.110964669208499   1.0000000
N2   N   0.381022456105533   0.046640602643890   0.111093011099023   1.0000000
N2   N   0.379931131898537   0.188969217376091   0.111088322045035   1.0000000
N2   N   0.375006401646466   0.327885811497026   0.110315889121800   1.0000000
N2   N   0.381720356329595   0.470258419243009   0.110534052140466   1.0000000
N2   N   0.383427192524295   0.616576338499293   0.111049897896145   1.0000000
N2   N   0.382295728053066   0.760121960543636   0.110991433886028   1.0000000
N2   N   0.524328602949502   0.903806317104262   0.110912615164075   1.0000000
N2   N   0.523744946716427   0.047490460559786   0.110923172961598   1.0000000
N2   N   0.523106722573623   0.191252594409775   0.111132706388595   1.0000000
N2   N   0.521877308019725   0.335554931718626   0.111023671043512   1.0000000
N2   N   0.529742632468853   0.618281358118061   0.110563961923113   1.0000000
N2   N   0.525362051536462   0.759970632003572   0.110894028339160   1.0000000
N2   N   0.667380653329083   0.905590896348862   0.110978167536295   1.0000000
N2   N   0.666526892387445   0.048127680790500   0.110937395111208   1.0000000
N2   N   0.665982217251873   0.191316829485388   0.111079765838006   1.0000000
N2   N   0.665221189664848   0.334779819702298   0.111219340360535   1.0000000
N2   N   0.664439632751076   0.478120820487611   0.111080525403395   1.0000000
N2   N   0.672110830828039   0.624993952002249   0.110410766858948   1.0000000
N2   N   0.669632126095038   0.764985880431574   0.110830533724460   1.0000000
N2   N   0.810844617180322   0.906281530210848   0.111013458953508   1.0000000
N2   N   0.809500956527856   0.048289321235089   0.110994335243213   1.0000000
N2   N   0.808954814215312   0.191050557352583   0.111043093514823   1.0000000
N2   N   0.808686317045257   0.334021986925912   0.111090886700616   1.0000000
N2   N   0.808744765675996   0.476894471420053   0.111165688807013   1.0000000
N2   N   0.811026754516988   0.620069735029610   0.111152481878527   1.0000000
N2   N   0.812438665155589   0.764475488580800   0.111072817323532   1.0000000
P2   P   0.496576682078576   0.503423657636638   0.113127547160993   1.0000000


