data_1
_audit_creation_method   'vasp2cif'
_cell_length_a    17.52789999999977
_cell_length_b    17.52789999999977
_cell_length_c    15.0
_cell_angle_alpha    90.0
_cell_angle_beta    90.0
_cell_angle_gamma    119.99999999999916

_symmetry_space_group_name_H-M    'P 1'
loop_
_atom_site_label
_atom_site_type_symbol
_atom_site_fract_x
_atom_site_fract_y
_atom_site_fract_z
_atom_site_occupancy
Al2   Al   0.526818472726744   0.625702720442764   0.111062587508963   1.0000000
B2   B   0.907623218681613   0.954716930380841   0.111009479961271   1.0000000
B2   B   0.904353838014768   0.095129706291197   0.111045775026157   1.0000000
B2   B   0.903780915760817   0.237303807521993   0.111061502886437   1.0000000
B2   B   0.904570073007875   0.380091112248759   0.111026406656162   1.0000000
B2   B   0.907641163893032   0.523814386507705   0.111054472030149   1.0000000
B2   B   0.911814005202186   0.668510116714078   0.111033555557583   1.0000000
B2   B   0.911170836885515   0.813472382135887   0.111016336735177   1.0000000
B2   B   0.049469037065028   0.953239899218564   0.111029360362236   1.0000000
B2   B   0.046583541061265   0.094094860972861   0.111036087343878   1.0000000
B2   B   0.045042085544858   0.236417099807138   0.111008456819393   1.0000000
B2   B   0.044988725131660   0.379724373425323   0.110998758546650   1.0000000
B2   B   0.046447338104016   0.523543285312467   0.111029750826327   1.0000000
B2   B   0.049444951821263   0.667510223006444   0.111065078154174   1.0000000
B2   B   0.050414149460005   0.810881839174867   0.111039665093565   1.0000000
B2   B   0.190996814034607   0.952307353058716   0.111061469260642   1.0000000
B2   B   0.188942737158379   0.092901558133863   0.111093100228404   1.0000000
B2   B   0.185175565814594   0.233114076119550   0.111054542913926   1.0000000
B2   B   0.185018134971079   0.378379162450689   0.111048505675864   1.0000000
B2   B   0.185046983610465   0.523309899137076   0.111066985326490   1.0000000
B2   B   0.188007281750782   0.667486040390745   0.111127745601503   1.0000000
B2   B   0.190809175633567   0.810393294563744   0.111042138359132   1.0000000
B2   B   0.333029546253311   0.952548246719866   0.111084443703798   1.0000000
B2   B   0.332494387272312   0.093188590200216   0.111132228926148   1.0000000
B2   B   0.328339484447570   0.231675180007642   0.111004230352505   1.0000000
B2   B   0.322044484620819   0.371941753562298   0.110941159060600   1.0000000
B2   B   0.322850654248727   0.522267803927199   0.110921897089260   1.0000000
B2   B   0.326200318713059   0.667970465813626   0.111055141815348   1.0000000
B2   B   0.331940890482552   0.811128319227075   0.111097915144901   1.0000000
B2   B   0.475783560635136   0.954731026178691   0.111081794187320   1.0000000
B2   B   0.476001450152574   0.093588382749347   0.111103780724131   1.0000000
B2   B   0.475554328572253   0.231263766732121   0.110959465424478   1.0000000
B2   B   0.467385889763821   0.358464523688573   0.110925546276895   1.0000000
B2   B   0.446082109327430   0.512033016230178   0.111031266179644   1.0000000
B2   B   0.463660895349718   0.680337003071538   0.110874092324191   1.0000000
B2   B   0.474800878451212   0.816689003533222   0.111041557372864   1.0000000
B2   B   0.619438214063738   0.953886923526876   0.111025739281986   1.0000000
B2   B   0.619422001614200   0.095213874451236   0.111022587867429   1.0000000
B2   B   0.619968342965900   0.236637353343809   0.111013190783109   1.0000000
B2   B   0.621640820639706   0.378843396624315   0.110913464467373   1.0000000
B2   B   0.644385375115379   0.535765909005710   0.110923752193592   1.0000000
B2   B   0.645287959104784   0.677276144387150   0.111173091927998   1.0000000
B2   B   0.619972977569028   0.811878654456133   0.111015386586332   1.0000000
B2   B   0.763110278602699   0.953895054686748   0.111016300965771   1.0000000
B2   B   0.762033349560741   0.095413851838704   0.111037309780734   1.0000000
B2   B   0.762248501641260   0.237391129118548   0.111030336498030   1.0000000
B2   B   0.763721695392027   0.379892566532142   0.111011511546577   1.0000000
B2   B   0.769701586794060   0.524257586722223   0.110968766127808   1.0000000
B2   B   0.779300952037412   0.674029128017882   0.110972220659699   1.0000000
B2   B   0.769446713516980   0.815988926995429   0.110993691874036   1.0000000
N2   N   0.955975770296259   0.907604186001302   0.110993629880875   1.0000000
N2   N   0.952858736645889   0.048580597221226   0.111018239431047   1.0000000
N2   N   0.950788140450011   0.189647444942843   0.111033568935171   1.0000000
N2   N   0.950715877411340   0.331981671417570   0.111010523554566   1.0000000
N2   N   0.952479079606296   0.475048530159196   0.111018737838650   1.0000000
N2   N   0.955966404614173   0.619047284474777   0.111046740870614   1.0000000
N2   N   0.956822746957824   0.763746020686167   0.111023773123128   1.0000000
N2   N   0.096757786901124   0.905544640736031   0.111018438592244   1.0000000
N2   N   0.094909333205369   0.047167496724941   0.111041508057759   1.0000000
N2   N   0.091543434963772   0.187768038323463   0.110999474411185   1.0000000
N2   N   0.090870580098671   0.330966698517694   0.110988406781231   1.0000000
N2   N   0.091131212367850   0.474619437768374   0.110991585412044   1.0000000
N2   N   0.094055555264689   0.618749181475259   0.111060152672526   1.0000000
N2   N   0.096523600952454   0.762595252427540   0.111031425365396   1.0000000
N2   N   0.238287779262390   0.905187383392997   0.111019627141740   1.0000000
N2   N   0.237699351780586   0.046614632235638   0.111106833939457   1.0000000
N2   N   0.234122351965628   0.186370200973851   0.111043247830874   1.0000000
N2   N   0.228759840868178   0.326091546407928   0.111073113497055   1.0000000
N2   N   0.228756245086736   0.473623083461289   0.111050188010227   1.0000000
N2   N   0.231999248244248   0.618783621159652   0.111106297049250   1.0000000
N2   N   0.236898885504880   0.762761474070382   0.111080205486773   1.0000000
N2   N   0.380547598021683   0.906249968277928   0.111067071818916   1.0000000
N2   N   0.380881738005358   0.047011462923200   0.111115841807086   1.0000000
N2   N   0.379758029464662   0.187137383105010   0.111022761086197   1.0000000
N2   N   0.373550093045677   0.324616767698357   0.110916156005572   1.0000000
N2   N   0.356425713032868   0.462846726861418   0.110754428632018   1.0000000
N2   N   0.369479225590574   0.619707608972639   0.110904020946745   1.0000000
N2   N   0.378347119950908   0.764582839872810   0.111064410894662   1.0000000
N2   N   0.524220948442438   0.910314181002392   0.111042285162454   1.0000000
N2   N   0.524387912052923   0.048560637407358   0.111049833167699   1.0000000
N2   N   0.524636676803334   0.187185089112490   0.111028935458492   1.0000000
N2   N   0.524872117167440   0.324331957976543   0.110817203013432   1.0000000
N2   N   0.523219627988078   0.773583882003189   0.110965643217006   1.0000000
N2   N   0.668131530573880   0.907380762113654   0.111006210756163   1.0000000
N2   N   0.667376892738853   0.048692273216333   0.111000296269825   1.0000000
N2   N   0.667503816720687   0.189933987077363   0.111003009236020   1.0000000
N2   N   0.668667606839702   0.331654963020200   0.110980387498261   1.0000000
N2   N   0.675284990302367   0.475040199632677   0.110901544550219   1.0000000
N2   N   0.688924975893173   0.627468288306886   0.110920652521793   1.0000000
N2   N   0.676987505853586   0.771133227097861   0.111020559608734   1.0000000
N2   N   0.814262359919860   0.909736432468732   0.110983147331831   1.0000000
N2   N   0.809906299992146   0.048609099007924   0.111026260759125   1.0000000
N2   N   0.809326316956228   0.190080211950438   0.111038560131197   1.0000000
N2   N   0.810056986323166   0.332122477641694   0.111016028672046   1.0000000
N2   N   0.813668810062669   0.475003874911952   0.111002114845942   1.0000000
N2   N   0.819261749471646   0.620253370364161   0.110971851392738   1.0000000
N2   N   0.818662483965470   0.767999755459300   0.110993960284139   1.0000000
Se2   Se   0.523806086422642   0.476106307868293   0.111207477033199   1.0000000


