data_1
_audit_creation_method   'vasp2cif'
_cell_length_a    17.52789999999977
_cell_length_b    17.52789999999977
_cell_length_c    15.0
_cell_angle_alpha    90.0
_cell_angle_beta    90.0
_cell_angle_gamma    119.99999999999916

_symmetry_space_group_name_H-M    'P 1'
loop_
_atom_site_label
_atom_site_type_symbol
_atom_site_fract_x
_atom_site_fract_y
_atom_site_fract_z
_atom_site_occupancy
B2   B   0.905799296091067   0.953747024924727   0.111008315339761   1.0000000
B2   B   0.905096223470373   0.095863709021360   0.111034199162131   1.0000000
B2   B   0.904748320379145   0.238224269229849   0.111042816418915   1.0000000
B2   B   0.904523569679099   0.380746591569708   0.110965169155824   1.0000000
B2   B   0.904323304378788   0.523435372345096   0.110983282383125   1.0000000
B2   B   0.904624994867820   0.666624042560352   0.111089991215248   1.0000000
B2   B   0.905882935293413   0.810775160287109   0.111047758892508   1.0000000
B2   B   0.047815810936521   0.952574129029171   0.110980373044678   1.0000000
B2   B   0.047511499029515   0.095088910766261   0.110985386652109   1.0000000
B2   B   0.047271724820530   0.237856501317112   0.110982170638184   1.0000000
B2   B   0.047056865081860   0.380804796308103   0.111004751805338   1.0000000
B2   B   0.046806806929045   0.523696680270291   0.111011323996100   1.0000000
B2   B   0.046988639554006   0.666463543934453   0.111033753633538   1.0000000
B2   B   0.047301461530116   0.809366391015179   0.110982323513385   1.0000000
B2   B   0.189800230769833   0.951691754952653   0.110975900691987   1.0000000
B2   B   0.190043613214439   0.094482713115742   0.111043587710470   1.0000000
B2   B   0.189142991575214   0.236371696112360   0.110996941920716   1.0000000
B2   B   0.189257779145417   0.380113780420303   0.111001735660345   1.0000000
B2   B   0.188935192834880   0.523803846505156   0.111088408342871   1.0000000
B2   B   0.189639996739015   0.666646286623122   0.111110963885743   1.0000000
B2   B   0.189704533082184   0.809186166156210   0.111006456337165   1.0000000
B2   B   0.332469265742454   0.951649704552548   0.111020669018808   1.0000000
B2   B   0.332274809037797   0.093661384050629   0.111083515513753   1.0000000
B2   B   0.332726204600262   0.236479536564384   0.111086511813798   1.0000000
B2   B   0.330111144807184   0.376589217283091   0.111054947989659   1.0000000
B2   B   0.330170761563808   0.523733483911463   0.111059899576465   1.0000000
B2   B   0.332385820590736   0.667136612214275   0.111122339971194   1.0000000
B2   B   0.332451072678358   0.809531601531193   0.111090100946166   1.0000000
B2   B   0.475522010454747   0.952449590807400   0.111005566293651   1.0000000
B2   B   0.475416799144613   0.093591278390025   0.111020252323480   1.0000000
B2   B   0.474946737265345   0.234129984691261   0.111047863640761   1.0000000
B2   B   0.477966032952372   0.377135528835022   0.111175888804736   1.0000000
B2   B   0.475820484085100   0.671189647798577   0.111039220534163   1.0000000
B2   B   0.475568429344747   0.811391290327728   0.111045140808703   1.0000000
B2   B   0.619013083461187   0.953776308403348   0.110995776795565   1.0000000
B2   B   0.618781375112285   0.094946059046799   0.110984437935699   1.0000000
B2   B   0.618655162901780   0.236181371984399   0.110983484908817   1.0000000
B2   B   0.617378546704164   0.376755277197645   0.110982713044447   1.0000000
B2   B   0.622594766747260   0.674726354469299   0.110996328770730   1.0000000
B2   B   0.619790524406734   0.813251538923610   0.110995988935425   1.0000000
B2   B   0.762717954687575   0.954173353786480   0.111003556496936   1.0000000
B2   B   0.762095652498314   0.095843072054287   0.111053123525261   1.0000000
B2   B   0.761911028138728   0.237848770297170   0.111028619563129   1.0000000
B2   B   0.761702520479016   0.380068348628605   0.110979544566718   1.0000000
B2   B   0.761608295021502   0.523639045955212   0.111022406825339   1.0000000
B2   B   0.764617211491874   0.668526862798831   0.111005872819408   1.0000000
B2   B   0.764341016001181   0.813010260598597   0.111023218814660   1.0000000
Si2   Si   0.482448753591670   0.521430800407605   0.111161313235740   1.0000000
N2   N   0.952982033879249   0.905762641165307   0.110991573120934   1.0000000
N2   N   0.952772118688605   0.048420503629094   0.110989975365893   1.0000000
N2   N   0.952427207094746   0.190763550674136   0.111019216336717   1.0000000
N2   N   0.952251834776726   0.333259793978774   0.110978038908311   1.0000000
N2   N   0.952032889551198   0.475921324680789   0.110938254180063   1.0000000
N2   N   0.952068921616694   0.618865776224716   0.111026829579998   1.0000000
N2   N   0.952371394344270   0.762097440377459   0.111043244869740   1.0000000
N2   N   0.094842748431919   0.904480732383796   0.110931978087144   1.0000000
N2   N   0.095077881684504   0.047534127870701   0.110983449175078   1.0000000
N2   N   0.094517694824285   0.189928289924427   0.110951478640852   1.0000000
N2   N   0.094600130730616   0.333053674767585   0.110968006834936   1.0000000
N2   N   0.094321061060889   0.476037121932679   0.111021670355543   1.0000000
N2   N   0.094656178842421   0.618886369053705   0.111037548244440   1.0000000
N2   N   0.094717106126332   0.761635561659387   0.110975612113148   1.0000000
N2   N   0.237355492030481   0.904135533126525   0.110962225216819   1.0000000
N2   N   0.237221103283816   0.046576243660701   0.111026419001195   1.0000000
N2   N   0.237373808699220   0.189491431718470   0.111035191458933   1.0000000
N2   N   0.235886551686132   0.331284306026004   0.110991412647744   1.0000000
N2   N   0.236061841183254   0.475826780419422   0.111038868399590   1.0000000
N2   N   0.237335921550105   0.619048313371835   0.111119175751111   1.0000000
N2   N   0.237379021802318   0.761686356020525   0.111077961224307   1.0000000
N2   N   0.380284320008259   0.904400757536346   0.111023705799313   1.0000000
N2   N   0.380111459087091   0.046350433156241   0.111024709763099   1.0000000
N2   N   0.379636069331788   0.188205377218454   0.111073379054736   1.0000000
N2   N   0.380356017134769   0.331634009691767   0.111090000421968   1.0000000
N2   N   0.373657058530084   0.472214265524205   0.111046270577994   1.0000000
N2   N   0.380382907830144   0.619552210087881   0.111055738633396   1.0000000
N2   N   0.380300731401874   0.762236299661014   0.111095542581267   1.0000000
N2   N   0.523629668513898   0.905813053811563   0.110990684415660   1.0000000
N2   N   0.523486501779653   0.046905983994800   0.110961408190680   1.0000000
N2   N   0.523268481606155   0.187758941510627   0.110990130610207   1.0000000
N2   N   0.522436281604587   0.327339060685229   0.111040730354161   1.0000000
N2   N   0.534067872473385   0.469118279145619   0.111318547780763   1.0000000
N2   N   0.528007731879989   0.629004293787820   0.111023713291992   1.0000000
N2   N   0.523954990728375   0.765179507094850   0.111002506065679   1.0000000
N2   N   0.667364652747938   0.907346618064269   0.110979467303414   1.0000000
N2   N   0.666879809240929   0.048231364199969   0.110990184975531   1.0000000
N2   N   0.666773977293881   0.189518294967271   0.110982814432798   1.0000000
N2   N   0.666721235676515   0.330600247722358   0.110970037199823   1.0000000
N2   N   0.669901493987618   0.468735320299953   0.110808538445534   1.0000000
N2   N   0.673148952771951   0.633664837984038   0.110797123200265   1.0000000
N2   N   0.669519878330819   0.768426658570759   0.110985033778892   1.0000000
N2   N   0.811038046379942   0.907383324358369   0.110987147307228   1.0000000
N2   N   0.810056111010992   0.048773486051942   0.111027941610200   1.0000000
N2   N   0.809757350430499   0.190643665012308   0.111044334174991   1.0000000
N2   N   0.809663523532868   0.332811080563222   0.110972999391441   1.0000000
N2   N   0.809671796720511   0.475439238434996   0.110980936909257   1.0000000
N2   N   0.809746047671391   0.619273471589284   0.111085420780454   1.0000000
N2   N   0.811198104039303   0.764607452113017   0.111034755885401   1.0000000


