data_1
_audit_creation_method   'vasp2cif'
_cell_length_a    17.52789999999977
_cell_length_b    17.52789999999977
_cell_length_c    15.0
_cell_angle_alpha    90.0
_cell_angle_beta    90.0
_cell_angle_gamma    119.99999999999916

_symmetry_space_group_name_H-M    'P 1'
loop_
_atom_site_label
_atom_site_type_symbol
_atom_site_fract_x
_atom_site_fract_y
_atom_site_fract_z
_atom_site_occupancy
B2   B   0.905187367805510   0.953053171856909   0.111160712774251   1.0000000
B2   B   0.904488314996471   0.095513706199954   0.111341327133821   1.0000000
B2   B   0.904345640438504   0.238329633259452   0.111435481813342   1.0000000
B2   B   0.904645370281228   0.381265372881372   0.111389413353638   1.0000000
B2   B   0.905467953135253   0.524312053688325   0.111330607530540   1.0000000
B2   B   0.905944718333014   0.667440066243740   0.111248318991822   1.0000000
B2   B   0.905884006397524   0.810473526593173   0.111116417280846   1.0000000
B2   B   0.047660131023196   0.952341890170836   0.111234447133193   1.0000000
B2   B   0.046948849337080   0.094814653389870   0.111160712774251   1.0000000
B2   B   0.046741980111728   0.237881548004710   0.111107869109686   1.0000000
B2   B   0.046975395595786   0.381070763735949   0.111237603604063   1.0000000
B2   B   0.047604118115425   0.524090261738737   0.111453686321497   1.0000000
B2   B   0.048050666663196   0.666975486559200   0.111453385511571   1.0000000
B2   B   0.048068905638381   0.809753955265651   0.111328798642456   1.0000000
B2   B   0.190248065928689   0.951933115558798   0.111328798642456   1.0000000
B2   B   0.189528494601295   0.094118014797123   0.111116417280846   1.0000000
B2   B   0.188476819233705   0.236481019736425   0.110689857252578   1.0000000
B2   B   0.188871927118554   0.380478873064437   0.110539291717806   1.0000000
B2   B   0.189839402046683   0.523952928073638   0.111067773371929   1.0000000
B2   B   0.190455378516911   0.666832019384832   0.111534593332371   1.0000000
B2   B   0.190514372661317   0.809487648534316   0.111447555438747   1.0000000
B2   B   0.333026534640290   0.951951354533861   0.111453385511571   1.0000000
B2   B   0.332561954951450   0.094057302861771   0.111248318991820   1.0000000
B2   B   0.331106845063066   0.235264235936106   0.110632589839499   1.0000000
B2   B   0.328902835583954   0.377844907316712   0.109982147210896   1.0000000
B2   B   0.331813128999898   0.524037109298603   0.110136405862594   1.0000000
B2   B   0.333085606463655   0.666916414733431   0.111071312077956   1.0000000
B2   B   0.333170001812172   0.809546642678613   0.111534593332371   1.0000000
B2   B   0.475911759460359   0.952397903080561   0.111453686321497   1.0000000
B2   B   0.475689967506346   0.094534068060322   0.111330607530540   1.0000000
B2   B   0.475183476980082   0.236020694291981   0.110798324295328   1.0000000
B2   B   0.471197017268530   0.371960377443323   0.110340451381331   1.0000000
B2   B   0.475964911898404   0.668188892197142   0.110136405862594   1.0000000
B2   B   0.476049093123084   0.810162619149551   0.111067773371929   1.0000000
B2   B   0.618931257460803   0.953026625597263   0.111237603604063   1.0000000
B2   B   0.618736648313693   0.095356650914151   0.111389413353638   1.0000000
B2   B   0.618793873223011   0.237826314939533   0.111092338326957   1.0000000
B2   B   0.619463401903313   0.380538619290600   0.110493250554028   1.0000000
B2   B   0.628041643753364   0.528805003928081   0.110340451381322   1.0000000
B2   B   0.622157113879095   0.671099185612956   0.109982147210896   1.0000000
B2   B   0.619523148133668   0.811130094075943   0.110539291717806   1.0000000
B2   B   0.762120473191547   0.953260041082676   0.111107869109686   1.0000000
B2   B   0.761672387937699   0.095656380757166   0.111435481813342   1.0000000
B2   B   0.761674345532929   0.238327675664392   0.111388469185138   1.0000000
B2   B   0.762175706256030   0.381208147973033   0.111092338326957   1.0000000
B2   B   0.763981326902859   0.524818544219531   0.110798324295328   1.0000000
B2   B   0.764737785262596   0.668895176134736   0.110632589839499   1.0000000
B2   B   0.763521001460034   0.811525201962998   0.110689857252578   1.0000000
N2   N   0.952615840964057   0.905199908499675   0.111163172175445   1.0000000
N2   N   0.952142306868700   0.047859095050332   0.111235481205055   1.0000000
N2   N   0.951875617149577   0.190636852391035   0.111344736795875   1.0000000
N2   N   0.951956818977978   0.333551859081861   0.111385017064527   1.0000000
N2   N   0.952391722711271   0.476445973699383   0.111405279178383   1.0000000
N2   N   0.952700494526247   0.619357970364467   0.111368526975079   1.0000000
N2   N   0.952780935759586   0.762293554019900   0.111249378871031   1.0000000
N2   N   0.095234733542668   0.904766668375967   0.111285651131303   1.0000000
N2   N   0.094801493420288   0.047385560952886   0.111163172175445   1.0000000
N2   N   0.094163212478680   0.189911536749928   0.110993055643612   1.0000000
N2   N   0.094373329001613   0.333193266795397   0.110963386547962   1.0000000
N2   N   0.094952225400113   0.476272461689437   0.111302163084832   1.0000000
N2   N   0.095335583880708   0.619182365814187   0.111512634295287   1.0000000
N2   N   0.095387229740738   0.762008107755746   0.111379443404883   1.0000000
N2   N   0.237993294161400   0.904614172175936   0.111379443404883   1.0000000
N2   N   0.237707847897446   0.047220466160564   0.111249378871031   1.0000000
N2   N   0.236934862616466   0.189549008735592   0.110814607020905   1.0000000
N2   N   0.235649305784543   0.331684149606232   0.110237668139194   1.0000000
N2   N   0.237354165997392   0.475898821269542   0.110466512451416   1.0000000
N2   N   0.238093972496337   0.619054629169046   0.111317517922325   1.0000000
N2   N   0.238108223182543   0.761893178735188   0.111559712717952   1.0000000
N2   N   0.380819036100085   0.904665818035594   0.111512634295296   1.0000000
N2   N   0.380643431554226   0.047300907391686   0.111368526975079   1.0000000
N2   N   0.380338413935579   0.189832945731058   0.110929641648491   1.0000000
N2   N   0.378933496435109   0.332015824398420   0.110120055756257   1.0000000
N2   N   0.376575732769769   0.472797724151281   0.109797562762695   1.0000000
N2   N   0.381074950025994   0.618926451892028   0.110408842846724   1.0000000
N2   N   0.380946772747617   0.761907429420718   0.111317517922325   1.0000000
N2   N   0.523728940229530   0.905049176518503   0.111302163084832   1.0000000
N2   N   0.523555428217781   0.047609679205403   0.111405279178383   1.0000000
N2   N   0.523477386380350   0.190146233075141   0.111091685214222   1.0000000
N2   N   0.523704360611304   0.332908407329577   0.110314456210786   1.0000000
N2   N   0.527203677762268   0.623425669149128   0.109797562762695   1.0000000
N2   N   0.524102580648395   0.762647235921999   0.110466512451416   1.0000000
N2   N   0.666808135118376   0.905628072916664   0.110963386547962   1.0000000
N2   N   0.666449542836302   0.048044582940649   0.111385017064527   1.0000000
N2   N   0.666345021651220   0.190739811620195   0.111300990461037   1.0000000
N2   N   0.666421558639389   0.333579843278246   0.110863187799334   1.0000000
N2   N   0.667092994585262   0.476297041302587   0.110314456210786   1.0000000
N2   N   0.667985577516891   0.621067905479644   0.110120055756257   1.0000000
N2   N   0.668317252310012   0.764352096132846   0.110237668139194   1.0000000
N2   N   0.810089865169008   0.905838189440140   0.110993055643612   1.0000000
N2   N   0.809364549527002   0.048125784770314   0.111344736795875   1.0000000
N2   N   0.809171651192350   0.190829750723633   0.111471649077095   1.0000000
N2   N   0.809261590298957   0.333656380264771   0.111300990461037   1.0000000
N2   N   0.809855168843240   0.476524015535781   0.111091685214222   1.0000000
N2   N   0.810168456189451   0.619662987983966   0.110929641648491   1.0000000
N2   N   0.810452393182384   0.763066539301358   0.110814607020905   1.0000000
P2   P   0.485691061137935   0.514310960056612   0.112076149075799   1.0000000


