data_1
_audit_creation_method   'vasp2cif'
_cell_length_a    17.52789999999977
_cell_length_b    17.52789999999977
_cell_length_c    15.0
_cell_angle_alpha    90.0
_cell_angle_beta    90.0
_cell_angle_gamma    119.99999999999916

_symmetry_space_group_name_H-M    'P 1'
loop_
_atom_site_label
_atom_site_type_symbol
_atom_site_fract_x
_atom_site_fract_y
_atom_site_fract_z
_atom_site_occupancy
B2   B   0.907267823285735   0.954397044638399   0.111088833164252   1.0000000
B2   B   0.904435239165571   0.095566782030410   0.111005867602805   1.0000000
B2   B   0.903524950624185   0.237912100171537   0.111027006043077   1.0000000
B2   B   0.904207796627836   0.380894073200399   0.111007943139639   1.0000000
B2   B   0.907135892199798   0.524436233182247   0.111072298340248   1.0000000
B2   B   0.908564328169495   0.668259735081117   0.111183681689840   1.0000000
B2   B   0.909349836391320   0.812344246037192   0.111250393627371   1.0000000
B2   B   0.048413975806333   0.951588045389671   0.111137853509020   1.0000000
B2   B   0.045604976557608   0.092734197910260   0.111088833164252   1.0000000
B2   B   0.044303606574816   0.235747178872301   0.111147963369648   1.0000000
B2   B   0.044798839599354   0.379854371804122   0.111057425600687   1.0000000
B2   B   0.046714127134133   0.523768243344274   0.111068328468116   1.0000000
B2   B   0.049212009092851   0.666878576935054   0.111218882879196   1.0000000
B2   B   0.049541762606766   0.809550483207063   0.111191474358476   1.0000000
B2   B   0.190451537988936   0.950460258589240   0.111191474358476   1.0000000
B2   B   0.187657775158815   0.090652184804673   0.111250393627371   1.0000000
B2   B   0.183268888704072   0.230555308896594   0.111316221888888   1.0000000
B2   B   0.183846975577287   0.376561139351715   0.111212983812619   1.0000000
B2   B   0.185687695331289   0.523102248794399   0.111076853830073   1.0000000
B2   B   0.190798107469213   0.666473695483351   0.111161521358539   1.0000000
B2   B   0.191206800758339   0.808795220437675   0.111153026917964   1.0000000
B2   B   0.333123444261949   0.950790012103153   0.111218882879196   1.0000000
B2   B   0.331742286115876   0.091437693026491   0.111183681689840   1.0000000
B2   B   0.326390806923645   0.228946918061148   0.111048260434335   1.0000000
B2   B   0.319441445110610   0.367494349091251   0.110780342643891   1.0000000
B2   B   0.321192444016374   0.518967647190424   0.110479423307197   1.0000000
B2   B   0.333391541268663   0.666610479928342   0.110957316192279   1.0000000
B2   B   0.333528325713653   0.809203913726804   0.111161521358540   1.0000000
B2   B   0.476233777852724   0.953287894061875   0.111068328468116   1.0000000
B2   B   0.475565788014752   0.092866128996198   0.111072298340248   1.0000000
B2   B   0.474448981073981   0.231195067212556   0.110758242408627   1.0000000
B2   B   0.463963018220431   0.358843829866650   0.110754847730214   1.0000000
B2   B   0.481034374006570   0.678809577180623   0.110479423307197   1.0000000
B2   B   0.476899772402600   0.814314325864711   0.111076853830073   1.0000000
B2   B   0.620147649391889   0.955203181596654   0.111057425600687   1.0000000
B2   B   0.619107947995599   0.095794224568163   0.111007943139639   1.0000000
B2   B   0.618992327333139   0.237123015311233   0.110814506151057   1.0000000
B2   B   0.620257380885877   0.379744640310123   0.110568254113780   1.0000000
B2   B   0.641158191329348   0.536039002976576   0.110754847730214   1.0000000
B2   B   0.632507672104755   0.680560576086384   0.110780342643891   1.0000000
B2   B   0.623440881844289   0.816155045618715   0.111212983812619   1.0000000
B2   B   0.764254842323698   0.955698414621183   0.111147963369648   1.0000000
B2   B   0.762089921024455   0.096477070571813   0.111027006043076   1.0000000
B2   B   0.761695021764577   0.238306999431425   0.111046481628572   1.0000000
B2   B   0.762879005884771   0.381009693862863   0.110814506151057   1.0000000
B2   B   0.768806953983459   0.525553040123020   0.110758242408627   1.0000000
B2   B   0.771055103134864   0.673611214273364   0.111048260434335   1.0000000
B2   B   0.769446712299419   0.816733132491926   0.111316221888888   1.0000000
N2   N   0.954586485134071   0.906353858602708   0.111135429157990   1.0000000
N2   N   0.952026375513484   0.047975026404515   0.110920521085004   1.0000000
N2   N   0.950334969780733   0.189858011469230   0.111032071036143   1.0000000
N2   N   0.950519632738643   0.332675120186962   0.110962011082092   1.0000000
N2   N   0.952527245032979   0.475920455281668   0.111021119617440   1.0000000
N2   N   0.954620755427761   0.619524148672034   0.111242549222687   1.0000000
N2   N   0.955271070927497   0.763114048368690   0.111224196659271   1.0000000
N2   N   0.095981190103439   0.904020211814563   0.111120473167474   1.0000000
N2   N   0.093647543315293   0.045414916783936   0.111135429157990   1.0000000
N2   N   0.090084508623847   0.186294943997186   0.111201186949344   1.0000000
N2   N   0.090227256105879   0.330487691620333   0.111186373425334   1.0000000
N2   N   0.091842474805236   0.475067628981152   0.111030767452570   1.0000000
N2   N   0.095773049583382   0.618834406473013   0.111126752821245   1.0000000
N2   N   0.096542990022296   0.761674759177630   0.111156587198676   1.0000000
N2   N   0.238326642740382   0.903458411895686   0.111156587198676   1.0000000
N2   N   0.236887353549313   0.044730330990512   0.111224196659271   1.0000000
N2   N   0.232441557088769   0.184082896559048   0.111274212195532   1.0000000
N2   N   0.226544611087906   0.323524596897342   0.111291113628068   1.0000000
N2   N   0.228407150127541   0.472735085339935   0.111033962286634   1.0000000
N2   N   0.237558298651565   0.618540701264181   0.111088902798962   1.0000000
N2   N   0.238579483153065   0.761421918764923   0.111155090532308   1.0000000
N2   N   0.381166995444973   0.904228352334611   0.111126752821245   1.0000000
N2   N   0.380477253245962   0.045380646490247   0.111242549222687   1.0000000
N2   N   0.378573805462032   0.185586661904937   0.110945519168903   1.0000000
N2   N   0.370690401384297   0.322021301714274   0.110808116419265   1.0000000
N2   N   0.351008854199968   0.457434850866780   0.110140274851783   1.0000000
N2   N   0.381168590294732   0.618832811623265   0.110490443635189   1.0000000
N2   N   0.381460700653815   0.762443103266444   0.111088902798962   1.0000000
N2   N   0.524933772935844   0.908158927112760   0.111030767452570   1.0000000
N2   N   0.524080946635320   0.047474156885032   0.111021119617440   1.0000000
N2   N   0.523691925842506   0.186982158092458   0.110834879315393   1.0000000
N2   N   0.522882304893461   0.324860740216828   0.110558931760127   1.0000000
N2   N   0.542566551050216   0.648992547718025   0.110140274851783   1.0000000
N2   N   0.527266316577053   0.771594251790461   0.111033962286633   1.0000000
N2   N   0.669513710296660   0.909774145812120   0.111186373425334   1.0000000
N2   N   0.667326281730029   0.049481769179364   0.110962011082092   1.0000000
N2   N   0.666813861811732   0.190569248373033   0.111029652172853   1.0000000
N2   N   0.667404834235766   0.332596567681233   0.110602084486429   1.0000000
N2   N   0.675140661700171   0.477119097023539   0.110558931760127   1.0000000
N2   N   0.677980100202711   0.629311000533695   0.110808116419265   1.0000000
N2   N   0.676476805019645   0.773456790830100   0.111291113628068   1.0000000
N2   N   0.813706457920813   0.909916893294149   0.111201186949344   1.0000000
N2   N   0.810143390448772   0.049666432137269   0.111032071036143   1.0000000
N2   N   0.809007053557971   0.190994348360032   0.110997987995393   1.0000000
N2   N   0.809432153544963   0.333187540105265   0.111029652172853   1.0000000
N2   N   0.813019243825549   0.476309476074493   0.110834879315392   1.0000000
N2   N   0.814414740013070   0.621427596455971   0.110945519168903   1.0000000
N2   N   0.815918505358942   0.767559844829245   0.111274212195532   1.0000000
As2   As   0.463465071709410   0.536536949487591   0.111796895823785   1.0000000
P2   P   0.528833371677839   0.471168030239157   0.110923616377385   1.0000000


