data_1
_audit_creation_method   'vasp2cif'
_cell_length_a    17.52789999999977
_cell_length_b    17.52789999999977
_cell_length_c    15.0
_cell_angle_alpha    90.0
_cell_angle_beta    90.0
_cell_angle_gamma    119.99999999999916

_symmetry_space_group_name_H-M    'P 1'
loop_
_atom_site_label
_atom_site_type_symbol
_atom_site_fract_x
_atom_site_fract_y
_atom_site_fract_z
_atom_site_occupancy
B2   B   0.904810109871776   0.951857963407930   0.105901803158252   1.0000000
B2   B   0.904174403840136   0.093971908890027   0.108198489843889   1.0000000
B2   B   0.904175532443281   0.236719506095745   0.108131205861703   1.0000000
B2   B   0.904294513567933   0.379771978613189   0.106961232063926   1.0000000
B2   B   0.905366874534100   0.523181117515251   0.104648555457246   1.0000000
B2   B   0.906278297710531   0.666765889397822   0.101799686293578   1.0000000
B2   B   0.906159916128336   0.810070160520824   0.101191147060058   1.0000000
B2   B   0.048397277171258   0.952963617049252   0.105128088153801   1.0000000
B2   B   0.048289160537532   0.095754943594252   0.106202421065341   1.0000000
B2   B   0.047478703728645   0.237603469219823   0.106508919467099   1.0000000
B2   B   0.046958334147770   0.380056180398611   0.105635973154096   1.0000000
B2   B   0.046973253810506   0.523227133924237   0.105698075435013   1.0000000
B2   B   0.047800179708160   0.666675776105256   0.105596458533904   1.0000000
B2   B   0.048398821781083   0.809990778201464   0.104542475985138   1.0000000
B2   B   0.191063517719591   0.952992181563686   0.106869489517457   1.0000000
B2   B   0.191139973658372   0.096059581932184   0.106121065121669   1.0000000
B2   B   0.192304884218530   0.240236310475855   0.106558361668048   1.0000000
B2   B   0.190249187151250   0.381008387979642   0.104410281862892   1.0000000
B2   B   0.188691453286127   0.523521620055791   0.102913272574772   1.0000000
B2   B   0.189369902655250   0.666624944003841   0.105931910963187   1.0000000
B2   B   0.190593879697894   0.809818870395690   0.107420787166588   1.0000000
B2   B   0.333526113848469   0.952451812892929   0.109168770526400   1.0000000
B2   B   0.333885169925383   0.095764107075814   0.110059935072327   1.0000000
B2   B   0.333573863306226   0.238821803370004   0.112958903134601   1.0000000
B2   B   0.337468893841033   0.386616161979189   0.115830838525756   1.0000000
B2   B   0.329925478605048   0.524274418438201   0.104310661606564   1.0000000
B2   B   0.330820927120337   0.666881807229783   0.104878713519237   1.0000000
B2   B   0.332893131445292   0.809415101818105   0.109420119001204   1.0000000
B2   B   0.475895012816421   0.950591535402715   0.111039863128334   1.0000000
B2   B   0.476325410995730   0.094423195215198   0.111106121856076   1.0000000
B2   B   0.476611056959895   0.237685095280920   0.120601012846859   1.0000000
B2   B   0.470712540189698   0.373532045039691   0.152444913428171   1.0000000
B2   B   0.472450424343623   0.559358742463108   0.147109599492266   1.0000000
B2   B   0.469078245747730   0.658176800978261   0.125673805440329   1.0000000
B2   B   0.474928261713632   0.805857557929786   0.115580744433399   1.0000000
B2   B   0.617969849801045   0.949704610211866   0.112936611930105   1.0000000
B2   B   0.618645127102204   0.093583648967346   0.110943290892778   1.0000000
B2   B   0.619032361388914   0.237188903846962   0.114363337922776   1.0000000
B2   B   0.619575771534508   0.380767801182913   0.127224533465885   1.0000000
B2   B   0.631370699800288   0.530460318911713   0.136421861211029   1.0000000
B2   B   0.622681313546187   0.664808704524415   0.103209538620153   1.0000000
B2   B   0.616239485993390   0.805193777066319   0.115082995676812   1.0000000
B2   B   0.760561991172377   0.949951914965323   0.109843773779222   1.0000000
B2   B   0.761092946907827   0.093285105392163   0.110209126158454   1.0000000
B2   B   0.761469391900217   0.236604870306044   0.109832708508956   1.0000000
B2   B   0.761807134354019   0.379887564276711   0.110204469895125   1.0000000
B2   B   0.764159967624007   0.523289122062937   0.107623792017057   1.0000000
B2   B   0.765644463383481   0.667565195291968   0.098517184157296   1.0000000
B2   B   0.761835368731355   0.808047794500767   0.104113992232822   1.0000000
N2   N   0.953078791221281   0.905001070979714   0.104110178719586   1.0000000
N2   N   0.952525510255327   0.047171393658095   0.106960358265007   1.0000000
N2   N   0.951944718825926   0.189291682373142   0.107832896526582   1.0000000
N2   N   0.951712965744229   0.332017296103095   0.107080004035808   1.0000000
N2   N   0.952093294865717   0.475148410227605   0.105762132393269   1.0000000
N2   N   0.952957138564108   0.618646501303934   0.104011682141319   1.0000000
N2   N   0.953265024225542   0.762117305199773   0.101832628301566   1.0000000
N2   N   0.095848842991373   0.905246765931374   0.105491388990528   1.0000000
N2   N   0.095839647149507   0.048153052814413   0.105700639575842   1.0000000
N2   N   0.096321340946395   0.191297517003215   0.106164075195458   1.0000000
N2   N   0.094861784826067   0.332713882690238   0.105286927534082   1.0000000
N2   N   0.093901110651225   0.475295491389371   0.104970873715310   1.0000000
N2   N   0.094516540401908   0.618620655044717   0.106269160895631   1.0000000
N2   N   0.095450828013936   0.762048924903909   0.106145222523398   1.0000000
N2   N   0.238352920058104   0.905079160619011   0.108047870527286   1.0000000
N2   N   0.238634290795434   0.048266051234086   0.107163080996143   1.0000000
N2   N   0.238734078440659   0.191396017226318   0.106393866195772   1.0000000
N2   N   0.240868199555026   0.336326434550629   0.107266172187972   1.0000000
N2   N   0.235730378440106   0.475746176179244   0.101687124478826   1.0000000
N2   N   0.235977265495338   0.618738269723920   0.103523618154925   1.0000000
N2   N   0.237673446549797   0.761905794383091   0.107647185044909   1.0000000
N2   N   0.380770210810492   0.904430070773341   0.110064477591326   1.0000000
N2   N   0.381172910319417   0.047608255784704   0.109856031902988   1.0000000
N2   N   0.381362966539604   0.190939102550494   0.114445258877058   1.0000000
N2   N   0.380686902260824   0.333818656131173   0.123031460841139   1.0000000
N2   N   0.383970252785867   0.484201341729787   0.114447046708112   1.0000000
N2   N   0.376821712423821   0.619064091590938   0.104397969227597   1.0000000
N2   N   0.379953071816737   0.761441763140435   0.110524643796828   1.0000000
N2   N   0.522877921412569   0.901770249208542   0.113168404064793   1.0000000
N2   N   0.523537088655532   0.046065487671734   0.110506738385101   1.0000000
N2   N   0.523904752310620   0.189726139934256   0.114217410143954   1.0000000
N2   N   0.523667444424020   0.332069154142951   0.135656209259848   1.0000000
N2   N   0.521116771419573   0.755509669949363   0.122815266613370   1.0000000
N2   N   0.664883467910452   0.901052519400918   0.112960790017846   1.0000000
N2   N   0.665828550611640   0.045302783242875   0.111234287267460   1.0000000
N2   N   0.666275354739172   0.189041174150349   0.111158740546824   1.0000000
N2   N   0.666548944758778   0.332692977582665   0.116709806288356   1.0000000
N2   N   0.670522060610260   0.476680714588427   0.122416756361102   1.0000000
N2   N   0.670770934187307   0.619494626168442   0.103496885005813   1.0000000
N2   N   0.664988934768968   0.758291725905650   0.106991858720180   1.0000000
N2   N   0.808950113637984   0.903092363450234   0.107007976576286   1.0000000
N2   N   0.808572578473923   0.045465566581790   0.109587752580694   1.0000000
N2   N   0.808848387686127   0.188716035989865   0.109338895081147   1.0000000
N2   N   0.809087341698850   0.331935788694098   0.108563094179128   1.0000000
N2   N   0.810499354782091   0.475159551934183   0.105648071489815   1.0000000
N2   N   0.811529523942799   0.618800834278935   0.100838126939653   1.0000000
N2   N   0.810904687626296   0.762197414183960   0.098539250749099   1.0000000
Si2   Si   0.524784427020927   0.493177827924478   0.204892939175589   1.0000000


