data_1
_audit_creation_method   'vasp2cif'
_cell_length_a    17.52789999999977
_cell_length_b    17.52789999999977
_cell_length_c    15.0
_cell_angle_alpha    90.0
_cell_angle_beta    90.0
_cell_angle_gamma    119.99999999999916

_symmetry_space_group_name_H-M    'P 1'
loop_
_atom_site_label
_atom_site_type_symbol
_atom_site_fract_x
_atom_site_fract_y
_atom_site_fract_z
_atom_site_occupancy
B2   B   0.903505361698687   0.950815650863003   0.111002761317556   1.0000000
B2   B   0.905499278415500   0.094502490455502   0.111054592277060   1.0000000
B2   B   0.906109549448971   0.237436395656486   0.111059597906963   1.0000000
B2   B   0.906016751172999   0.380293707546923   0.111013798830711   1.0000000
B2   B   0.904354674102357   0.522932831280630   0.110995792278626   1.0000000
B2   B   0.901459695111251   0.664921028837695   0.111022181792726   1.0000000
B2   B   0.900330472165540   0.806219063686084   0.111026526734063   1.0000000
B2   B   0.047073543978940   0.952928178177060   0.111001838792694   1.0000000
B2   B   0.049186054903995   0.096496340493315   0.111002762507558   1.0000000
B2   B   0.049590690243404   0.238793591854608   0.111050763788728   1.0000000
B2   B   0.048922569827308   0.381136069037838   0.111018490874121   1.0000000
B2   B   0.047380057447848   0.523962788217467   0.111013786743662   1.0000000
B2   B   0.045922751582864   0.666750254622316   0.111017723021563   1.0000000
B2   B   0.045738996954973   0.809543643432918   0.110984903488386   1.0000000
B2   B   0.190458099587082   0.954262755084031   0.110984899952384   1.0000000
B2   B   0.193782646623919   0.099671271291458   0.111026524673062   1.0000000
B2   B   0.194871477657976   0.242394091754703   0.111014978710765   1.0000000
B2   B   0.192906826344136   0.382722899554836   0.111019135140600   1.0000000
B2   B   0.190181948003569   0.524755446035758   0.111057869483330   1.0000000
B2   B   0.189102255565099   0.667576248449046   0.111077880000706   1.0000000
B2   B   0.189360469545535   0.810641166792463   0.111030665959987   1.0000000
B2   B   0.333251412839685   0.954078889776135   0.111017720138565   1.0000000
B2   B   0.335080723009307   0.098542044637745   0.111022180788729   1.0000000
B2   B   0.341978642070465   0.247907022125898   0.111064512762421   1.0000000
B2   B   0.340791570186658   0.388549069712011   0.111002092508316   1.0000000
B2   B   0.333073484186570   0.526826616680450   0.111025526262307   1.0000000
B2   B   0.331656323108437   0.668345499503562   0.111100077928326   1.0000000
B2   B   0.332425403576948   0.810899429021899   0.111077878218707   1.0000000
B2   B   0.476038855698534   0.952621534003156   0.111013792039664   1.0000000
B2   B   0.477068889140367   0.095646995122643   0.110995806298629   1.0000000
B2   B   0.479071977453292   0.239611802037199   0.111065434899453   1.0000000
B2   B   0.496098298902819   0.396660728688292   0.111077365777136   1.0000000
B2   B   0.473175112308548   0.666928278064426   0.111025525933305   1.0000000
B2   B   0.475246340975243   0.809819881825427   0.111057869458326   1.0000000
B2   B   0.618865675852162   0.951079157896697   0.111018493607124   1.0000000
B2   B   0.619707950490078   0.093984862733002   0.111013806048709   1.0000000
B2   B   0.620573276673818   0.236354674096662   0.110998946535804   1.0000000
B2   B   0.622088594641960   0.377913204637038   0.111044536501530   1.0000000
B2   B   0.603341005376710   0.503903336808183   0.111077365603131   1.0000000
B2   B   0.611452587913990   0.659210027747337   0.111002090094318   1.0000000
B2   B   0.617278825175162   0.807094937268864   0.111019133305602   1.0000000
B2   B   0.761208130747385   0.950411058006596   0.111050766142728   1.0000000
B2   B   0.762565305246513   0.093892139559031   0.111059597410962   1.0000000
B2   B   0.763227854920299   0.236773768310702   0.111018989403994   1.0000000
B2   B   0.763647058283338   0.379428447953179   0.110998939958807   1.0000000
B2   B   0.760390067057803   0.520929794531712   0.111065427665452   1.0000000
B2   B   0.752094766952100   0.658023050486534   0.111064514321416   1.0000000
B2   B   0.757607563914293   0.805130186044025   0.111014979730770   1.0000000
N2   N   0.950694196933082   0.903024311908115   0.110990424670358   1.0000000
N2   N   0.953009876916069   0.046991843212930   0.110995671916164   1.0000000
N2   N   0.953789533990829   0.190035803735370   0.111045319066259   1.0000000
N2   N   0.953638731236519   0.332788452772889   0.111012662665772   1.0000000
N2   N   0.952496972205007   0.475673700745958   0.110974083826655   1.0000000
N2   N   0.950697509478437   0.618418404025164   0.110988753839362   1.0000000
N2   N   0.949931100518067   0.760583044692648   0.110995959727860   1.0000000
N2   N   0.094621574214649   0.905380191358354   0.110968572409812   1.0000000
N2   N   0.096977403010886   0.049307529559915   0.110990435177360   1.0000000
N2   N   0.098056002043107   0.192207800180249   0.111002181824345   1.0000000
N2   N   0.096880008819202   0.333969844879956   0.111010963762965   1.0000000
N2   N   0.095035751095313   0.476492488723961   0.111007989468594   1.0000000
N2   N   0.093885287803879   0.619447477208043   0.111020495860411   1.0000000
N2   N   0.093799742515242   0.762355768687561   0.110990103518482   1.0000000
N2   N   0.237645898939436   0.906201909863756   0.110990102595480   1.0000000
N2   N   0.239418698479351   0.050070676836929   0.110995949520857   1.0000000
N2   N   0.243885802194469   0.196189589304152   0.111024757787928   1.0000000
N2   N   0.242802190385793   0.337543905554784   0.110987797511569   1.0000000
N2   N   0.237763205155362   0.477610509093835   0.111033136809543   1.0000000
N2   N   0.236366496914299   0.620193630906362   0.111079118476017   1.0000000
N2   N   0.236883301599649   0.763118347843351   0.111052233571878   1.0000000
N2   N   0.380554166382956   0.906116335415120   0.111020486576409   1.0000000
N2   N   0.381583301288834   0.049304121373568   0.110988759399366   1.0000000
N2   N   0.383938494614988   0.194034131205726   0.111053200898509   1.0000000
N2   N   0.394063215845054   0.345842613522532   0.111042646102723   1.0000000
N2   N   0.382709777158727   0.483143822950584   0.110927610436129   1.0000000
N2   N   0.378355696807752   0.621646058027246   0.111047290314153   1.0000000
N2   N   0.379808167866637   0.763635361940702   0.111079125358014   1.0000000
N2   N   0.523509287593045   0.904966051967688   0.111007994736593   1.0000000
N2   N   0.524327956075040   0.047504571900991   0.110974101823651   1.0000000
N2   N   0.525476468454643   0.190136828348587   0.111000394960713   1.0000000
N2   N   0.528069051677995   0.333228339135439   0.111065409046720   1.0000000
N2   N   0.474528145372286   0.525473393370714   0.110879364256157   1.0000000
N2   N   0.516857723823417   0.617291722804271   0.110927613969125   1.0000000
N2   N   0.522391227208169   0.762238607927641   0.111033131782546   1.0000000
N2   N   0.666031910346039   0.903121775336803   0.111010962467965   1.0000000
N2   N   0.667213259717107   0.046362943145480   0.111012665376770   1.0000000
N2   N   0.668064094019485   0.188792783781996   0.110991790039779   1.0000000
N2   N   0.669330219056288   0.330671539112711   0.110981247954933   1.0000000
N2   N   0.666773595831563   0.471932723349007   0.111065404203718   1.0000000
N2   N   0.654159181666468   0.605938432304950   0.111042647410726   1.0000000
N2   N   0.662457697824214   0.757199459476214   0.110987792726568   1.0000000
N2   N   0.807793883077749   0.901945706043891   0.111002183497346   1.0000000
N2   N   0.809965966099632   0.046212249171176   0.111045322532258   1.0000000
N2   N   0.810763903103244   0.189237754327756   0.111049619005057   1.0000000
N2   N   0.811208844542004   0.331937549241516   0.110991784523779   1.0000000
N2   N   0.809864896692415   0.474525249580359   0.111000375631713   1.0000000
N2   N   0.805967702343274   0.616063256431011   0.111053200268506   1.0000000
N2   N   0.803812138539849   0.756115891468533   0.111024762539924   1.0000000


