data_1
_audit_creation_method   'vasp2cif'
_cell_length_a    17.52789999999977
_cell_length_b    17.52789999999977
_cell_length_c    15.0
_cell_angle_alpha    90.0
_cell_angle_beta    90.0
_cell_angle_gamma    119.99999999999916

_symmetry_space_group_name_H-M    'P 1'
loop_
_atom_site_label
_atom_site_type_symbol
_atom_site_fract_x
_atom_site_fract_y
_atom_site_fract_z
_atom_site_occupancy
P2   P   0.406025544705798   0.481247462900562   0.109586568501676   1.0000000
B2   B   0.908385243608983   0.954875694655797   0.110188755098548   1.0000000
B2   B   0.908083609700718   0.097899273914706   0.110108283332245   1.0000000
B2   B   0.907814482322351   0.240654028905915   0.109959462388865   1.0000000
B2   B   0.906783956149653   0.382895327925020   0.110187191619687   1.0000000
B2   B   0.904245055737633   0.524738014888705   0.110362419015132   1.0000000
B2   B   0.905972054388378   0.667182156519907   0.110394151451807   1.0000000
B2   B   0.907882964153714   0.811241375957614   0.110233810010044   1.0000000
B2   B   0.048811955772763   0.951143060607322   0.109725673033687   1.0000000
B2   B   0.049157111215727   0.094873697437080   0.109833296962911   1.0000000
B2   B   0.050411945248435   0.239549625624072   0.109948040433544   1.0000000
B2   B   0.050690822077762   0.382716527724355   0.109983361847910   1.0000000
B2   B   0.049102718026305   0.524730005770479   0.110248558066466   1.0000000
B2   B   0.048802495396153   0.666515476742447   0.110377356414382   1.0000000
B2   B   0.048898199581387   0.808646412824196   0.110105952739765   1.0000000
B2   B   0.191021927288197   0.949454104006449   0.109822458452982   1.0000000
B2   B   0.189106170128483   0.089929640100891   0.111600284665059   1.0000000
B2   B   0.189879844268241   0.234456861605587   0.112178607625239   1.0000000
B2   B   0.194364232349187   0.381748672265452   0.111396456102639   1.0000000
B2   B   0.193477493647229   0.525303545130676   0.110724204324775   1.0000000
B2   B   0.192453565930194   0.667070620807451   0.110631904630218   1.0000000
B2   B   0.191831328403971   0.808386731099546   0.110133752879293   1.0000000
B2   B   0.334723021933762   0.950117515544370   0.109872566539124   1.0000000
B2   B   0.333197148725617   0.089015746675003   0.112737414053122   1.0000000
B2   B   0.328013287991268   0.224175915717439   0.115682585965118   1.0000000
B2   B   0.331223706196475   0.365129095173558   0.118099397051893   1.0000000
B2   B   0.337828452439609   0.533467276485332   0.109695355669537   1.0000000
B2   B   0.336701857651469   0.670894575207996   0.110704273367240   1.0000000
B2   B   0.335686844296312   0.810275622406898   0.110435656169002   1.0000000
B2   B   0.478921997512884   0.952319120287065   0.110048315921610   1.0000000
B2   B   0.477957387627640   0.092562564647224   0.111806628292371   1.0000000
B2   B   0.476739468925821   0.230912439800449   0.114600244747400   1.0000000
B2   B   0.457231489932987   0.337870795677020   0.087927997387418   1.0000000
B2   B   0.482048632935907   0.669313480747888   0.110226285270599   1.0000000
B2   B   0.480132912936213   0.811230153059078   0.110528432654981   1.0000000
B2   B   0.622757018902782   0.955570290798853   0.110256885067088   1.0000000
B2   B   0.622036544900780   0.097025615549732   0.110372998903777   1.0000000
B2   B   0.621674033315550   0.239338507273167   0.113159929220103   1.0000000
B2   B   0.619620843515214   0.382583220485969   0.114361427218554   1.0000000
B2   B   0.616864023074974   0.534855470322256   0.111798806093631   1.0000000
B2   B   0.629486320181471   0.677867437691162   0.110157197175297   1.0000000
B2   B   0.624261622204230   0.814998873754199   0.110300175876908   1.0000000
B2   B   0.766143982654512   0.956427317884369   0.110439442855430   1.0000000
B2   B   0.765345762612604   0.098359298434161   0.110208428431164   1.0000000
B2   B   0.764690102957537   0.240587718081436   0.110599039061434   1.0000000
B2   B   0.762950234537577   0.382855576385843   0.112132467673788   1.0000000
B2   B   0.758519850657450   0.525636425670967   0.111091123279586   1.0000000
B2   B   0.766769644142258   0.671285192683044   0.110485299717432   1.0000000
B2   B   0.768007365369741   0.815243018963528   0.110259585057108   1.0000000
N2   N   0.954533230232194   0.905707406487764   0.110032183289036   1.0000000
N2   N   0.954991441241773   0.049443296309207   0.109975053584286   1.0000000
N2   N   0.955612136877711   0.193048270310477   0.109893412603455   1.0000000
N2   N   0.955372174210005   0.335774540212036   0.109841314348408   1.0000000
N2   N   0.953275673365930   0.477789537267356   0.110144231786535   1.0000000
N2   N   0.953134677489750   0.619516312074609   0.110275793831370   1.0000000
N2   N   0.953766041461023   0.762061744592195   0.110295213010119   1.0000000
N2   N   0.096214010668248   0.903354479562815   0.109710468192219   1.0000000
N2   N   0.095372162719485   0.045643681105823   0.109757896370702   1.0000000
N2   N   0.096302440163093   0.189909870581936   0.109931364860166   1.0000000
N2   N   0.099279731462900   0.335262562118103   0.110128681820122   1.0000000
N2   N   0.098157323331861   0.477799063043854   0.110250391214301   1.0000000
N2   N   0.097082397142451   0.619545124367718   0.110454939737494   1.0000000
N2   N   0.096589675240814   0.761275036987456   0.110282868714911   1.0000000
N2   N   0.239543967031501   0.903053397217235   0.109668828208314   1.0000000
N2   N   0.238361737626335   0.044031360399487   0.110834590647777   1.0000000
N2   N   0.235505094774432   0.184234786002570   0.114305332401408   1.0000000
N2   N   0.238730792589067   0.329974286148712   0.113498693990600   1.0000000
N2   N   0.243107865711835   0.478315189942066   0.110933279879802   1.0000000
N2   N   0.241431409260045   0.620509525882483   0.110742562973655   1.0000000
N2   N   0.240358024028204   0.761849814156477   0.110505120993103   1.0000000
N2   N   0.383607394879760   0.904561071770736   0.109907040470382   1.0000000
N2   N   0.382704084831154   0.044586618729987   0.110761960112519   1.0000000
N2   N   0.380996988657273   0.183308048486140   0.116344770860728   1.0000000
N2   N   0.375376595512087   0.318414112270560   0.115017135438165   1.0000000
N2   N   0.386702365980419   0.625855001182941   0.110066236116857   1.0000000
N2   N   0.384760057080243   0.764546898670098   0.110811201387605   1.0000000
N2   N   0.527487492284671   0.906000352491326   0.110232936829220   1.0000000
N2   N   0.526705992447525   0.047287322753959   0.110275329943107   1.0000000
N2   N   0.526142429018982   0.187817840605092   0.114238883286404   1.0000000
N2   N   0.526540840842358   0.328502578101734   0.112028989652451   1.0000000
N2   N   0.515196300759520   0.535136062482529   0.112010853278733   1.0000000
N2   N   0.536367238242988   0.625737513910501   0.110030056333905   1.0000000
N2   N   0.529083849269760   0.764132566454080   0.110388956282932   1.0000000
N2   N   0.671003741387963   0.909092641766904   0.110421925842161   1.0000000
N2   N   0.670131449656623   0.050418150324489   0.110086980435966   1.0000000
N2   N   0.669412285814261   0.192487210895010   0.110949815846482   1.0000000
N2   N   0.667827068778493   0.335408463669964   0.114507311106536   1.0000000
N2   N   0.658520907462382   0.479027169898266   0.111692271261632   1.0000000
N2   N   0.671959472782966   0.626520660852755   0.110732714844751   1.0000000
N2   N   0.673671580283212   0.769977425552071   0.110006931762975   1.0000000
N2   N   0.814004023212462   0.909085492386218   0.110430764082437   1.0000000
N2   N   0.813184231211885   0.051077527072195   0.110352550303233   1.0000000
N2   N   0.812664889164573   0.193413619550533   0.110113191203695   1.0000000
N2   N   0.811343203505892   0.335799942553798   0.110793214662884   1.0000000
N2   N   0.807481672272900   0.478053186963898   0.110971888988942   1.0000000
N2   N   0.810001205930170   0.620425104693417   0.110527316085282   1.0000000
N2   N   0.813315335777766   0.765453547428045   0.110266173012654   1.0000000


