data_1
_audit_creation_method   'vasp2cif'
_cell_length_a    17.52789999999977
_cell_length_b    17.52789999999977
_cell_length_c    15.0
_cell_angle_alpha    90.0
_cell_angle_beta    90.0
_cell_angle_gamma    119.99999999999916

_symmetry_space_group_name_H-M    'P 1'
loop_
_atom_site_label
_atom_site_type_symbol
_atom_site_fract_x
_atom_site_fract_y
_atom_site_fract_z
_atom_site_occupancy
B2   B   0.904735643714298   0.952300944104128   0.111009034171598   1.0000000
B2   B   0.904794454732665   0.095221983502855   0.111033163492861   1.0000000
B2   B   0.904776026328592   0.238116589265862   0.111039674549083   1.0000000
B2   B   0.904705152064291   0.380990183586309   0.110992473049235   1.0000000
B2   B   0.905257650857723   0.523902436088931   0.110994382825136   1.0000000
B2   B   0.905376922690320   0.666968062806451   0.111048989109726   1.0000000
B2   B   0.905235906089922   0.809894297763219   0.111038824940376   1.0000000
B2   B   0.047800362577273   0.952538684050629   0.111002925346074   1.0000000
B2   B   0.047803033977571   0.095398394247601   0.111005433517119   1.0000000
B2   B   0.047733179642065   0.238118594135332   0.110994523446249   1.0000000
B2   B   0.047745651136855   0.380917280136661   0.111014144236465   1.0000000
B2   B   0.047785719062795   0.523813615799317   0.111000410730197   1.0000000
B2   B   0.047768139530530   0.666716359057869   0.111010754214316   1.0000000
B2   B   0.047776113264283   0.809599305813324   0.110993145176935   1.0000000
B2   B   0.190316994616568   0.952123598371325   0.110990015761646   1.0000000
B2   B   0.190535580360937   0.095240289901442   0.111031167596441   1.0000000
B2   B   0.190917019824139   0.238620975506075   0.111004276688666   1.0000000
B2   B   0.190688180215143   0.380682330582137   0.110993028757278   1.0000000
B2   B   0.190438640982192   0.523815785403590   0.111050288612110   1.0000000
B2   B   0.190356243834153   0.666714141792753   0.111053586936363   1.0000000
B2   B   0.190454131443198   0.809497992431323   0.110994657214530   1.0000000
B2   B   0.333236038204149   0.952135126468743   0.111013944578969   1.0000000
B2   B   0.332746313281602   0.094102402297575   0.111056650658977   1.0000000
B2   B   0.333094418944263   0.236502656802553   0.111050306544485   1.0000000
B2   B   0.334717863496307   0.382069519024950   0.111030355637966   1.0000000
B2   B   0.332661477080977   0.524721156990497   0.111045404841438   1.0000000
B2   B   0.332888595193626   0.667055965038510   0.111075215376077   1.0000000
B2   B   0.333254033682140   0.809603900919206   0.111053896000050   1.0000000
B2   B   0.476138330401946   0.952343882812691   0.111002922970688   1.0000000
B2   B   0.476036513384405   0.095300842639487   0.110986857404169   1.0000000
B2   B   0.474860748999667   0.237239005550497   0.111018612746308   1.0000000
B2   B   0.475328929636303   0.666329879060518   0.111049153655160   1.0000000
B2   B   0.476075002580712   0.809309111840665   0.111046649261634   1.0000000
B2   B   0.618944402869153   0.952234375646915   0.111010613846042   1.0000000
B2   B   0.618912701136728   0.095293132217077   0.110995048725636   1.0000000
B2   B   0.618707310804053   0.238281284243176   0.111002318529780   1.0000000
B2   B   0.619349074672899   0.382601327712845   0.111014591093846   1.0000000
B2   B   0.621922566069580   0.525194558971739   0.111075126053500   1.0000000
B2   B   0.618892349114600   0.665249100281219   0.111018181325453   1.0000000
B2   B   0.618830305210203   0.809170581084413   0.110997059305871   1.0000000
B2   B   0.761819855215496   0.952194596143541   0.110997912290863   1.0000000
B2   B   0.761836418308235   0.095205732243437   0.111039318865223   1.0000000
B2   B   0.761764228058638   0.238187695656114   0.111047396374836   1.0000000
B2   B   0.761683143123407   0.381222748266308   0.111004585151575   1.0000000
B2   B   0.763359447150801   0.524393661719073   0.111021231735219   1.0000000
B2   B   0.763163847503568   0.667462466923505   0.111033798826312   1.0000000
B2   B   0.761693908049664   0.809027769502078   0.111003186911723   1.0000000
C2   C   0.473322644894989   0.377607867482030   0.111204670639063   1.0000000
C2   C   0.472631715436952   0.524281130733512   0.111214024145621   1.0000000
C2   C   0.521844482812332   0.475256852189679   0.111275194199917   1.0000000
N2   N   0.952573124841175   0.904973307654008   0.111001969281070   1.0000000
N2   N   0.952519701572711   0.047666633324356   0.110998510237808   1.0000000
N2   N   0.952556824670651   0.190549921306708   0.111009050053733   1.0000000
N2   N   0.952486456977764   0.333404585246992   0.111002474777504   1.0000000
N2   N   0.952571647418419   0.476153879803203   0.110958078543856   1.0000000
N2   N   0.952572729414784   0.619055443235162   0.111002794011392   1.0000000
N2   N   0.952586467652799   0.762072514969692   0.111016615735433   1.0000000
N2   N   0.095344320658868   0.904884003432952   0.110967719549195   1.0000000
N2   N   0.095645650819804   0.047998496010298   0.110994936739423   1.0000000
N2   N   0.095991730297159   0.191007387478001   0.110981478719074   1.0000000
N2   N   0.095840181433749   0.333453925979956   0.110978982027102   1.0000000
N2   N   0.095613986072285   0.476171319673969   0.111004514646484   1.0000000
N2   N   0.095361027089686   0.618997041511038   0.111005017864040   1.0000000
N2   N   0.095346204224437   0.761943006074095   0.110977372521972   1.0000000
N2   N   0.238185706366883   0.904832039214521   0.110975026385331   1.0000000
N2   N   0.238130916623241   0.047704599708977   0.111018920853611   1.0000000
N2   N   0.239007569426997   0.191247365063685   0.111007268588349   1.0000000
N2   N   0.240017012861154   0.334363488050173   0.110975875149648   1.0000000
N2   N   0.238763307276303   0.476091444380077   0.111010441138927   1.0000000
N2   N   0.238192303126287   0.618929007948311   0.111049206152698   1.0000000
N2   N   0.238195544561892   0.761881994550840   0.111017514612722   1.0000000
N2   N   0.381002296181217   0.904755078816079   0.111008807822311   1.0000000
N2   N   0.380955971025518   0.047652882228075   0.111004909740033   1.0000000
N2   N   0.380697037093023   0.190145248349002   0.111030469599152   1.0000000
N2   N   0.384491348695722   0.334034373684377   0.111074684955336   1.0000000
N2   N   0.383531495354677   0.478275517873035   0.111054909504957   1.0000000
N2   N   0.380767514221214   0.618942869367200   0.111046467584550   1.0000000
N2   N   0.380981513858018   0.761787938655175   0.111045930972665   1.0000000
N2   N   0.523683167562179   0.904394723952110   0.110999855197364   1.0000000
N2   N   0.523659532249144   0.047821966404651   0.110962357749618   1.0000000
N2   N   0.523380566633716   0.191302726938650   0.110979110047694   1.0000000
N2   N   0.520587284374957   0.334909554399487   0.111054301408516   1.0000000
N2   N   0.520797485899537   0.615019235804060   0.111055897449550   1.0000000
N2   N   0.523531805827270   0.760787922485556   0.111005168302126   1.0000000
N2   N   0.666315223304440   0.904093559578178   0.110982353797000   1.0000000
N2   N   0.666439519922179   0.047519537990636   0.110998277863506   1.0000000
N2   N   0.666232181626369   0.190818114264279   0.111004312925777   1.0000000
N2   N   0.665202392246673   0.333867690788039   0.110976972505182   1.0000000
N2   N   0.667908152796906   0.476887605325491   0.111007836613941   1.0000000
N2   N   0.667955796980741   0.619680685992086   0.110989914997980   1.0000000
N2   N   0.665142379454528   0.759924852065692   0.110978810769526   1.0000000
N2   N   0.809050682143724   0.904160315685785   0.110984963675482   1.0000000
N2   N   0.809392390216800   0.047417320548245   0.111010873656120   1.0000000
N2   N   0.809366064322841   0.190537801954458   0.111032253090197   1.0000000
N2   N   0.809046538235765   0.333457930208380   0.111000598633649   1.0000000
N2   N   0.809829295214007   0.476206880899833   0.110996594277225   1.0000000
N2   N   0.810082796582476   0.619340994272251   0.111024304860812   1.0000000
N2   N   0.809833608624338   0.762188958337531   0.111016166333596   1.0000000


