data_1
_audit_creation_method   'vasp2cif'
_cell_length_a    14.93631414619966
_cell_length_b    14.936314146199727
_cell_length_c    13.341276283792837
_cell_angle_alpha    90.0
_cell_angle_beta    90.0
_cell_angle_gamma    119.99999999999984

_symmetry_space_group_name_H-M    'P 1'
loop_
_atom_site_label
_atom_site_type_symbol
_atom_site_fract_x
_atom_site_fract_y
_atom_site_fract_z
_atom_site_occupancy
P2   P   0.427235098240423   0.380284215786877   0.375000000000000   1.0000000
P2   P   0.571053676803696   0.452193505068512   0.375000000000000   1.0000000
N2   N   0.111118593404235   0.055546934947791   0.125235545348428   1.0000000
N2   N   0.611137910888246   0.555637134768720   0.123417707567429   1.0000000
N2   N   0.444453858950944   0.055551209411809   0.125283255718834   1.0000000
N2   N   0.944443287010026   0.555560850404172   0.125257831999804   1.0000000
N2   N   0.777810028448602   0.055571680890968   0.125019281540776   1.0000000
N2   N   0.111109540054772   0.722221436694053   0.624872747117184   1.0000000
N2   N   0.444453858950944   0.722235982872469   0.624716744281166   1.0000000
N2   N   0.277779705115542   0.222222949120066   0.624650458558763   1.0000000
N2   N   0.777799055058202   0.722250434671334   0.624996807832963   1.0000000
N2   N   0.611139811633136   0.222208147556467   0.625007257012379   1.0000000
N2   N   0.944469026206079   0.222236818221758   0.624955399797367   1.0000000
N2   N   0.277780549021882   0.722229992404755   0.125142273175141   1.0000000
N2   N   0.111112535999054   0.222222934666192   0.125206845813213   1.0000000
N2   N   0.444461336968889   0.222226059573968   0.125104387975175   1.0000000
N2   N   0.611139811633136   0.722264997409998   0.124992742987621   1.0000000
N2   N   0.944443287010026   0.722215769939189   0.125257831999804   1.0000000
N2   N   0.777813170938705   0.222223935011153   0.125030746143785   1.0000000
N2   N   0.111112524505621   0.888877053769752   0.624842589924794   1.0000000
N2   N   0.444453288537069   0.888893310935199   0.624876710127010   1.0000000
N2   N   0.277779705115542   0.388890089328804   0.624650458558763   1.0000000
N2   N   0.611137910888246   0.388834109452855   0.626582292432572   1.0000000
N2   N   0.777813170938705   0.888922569260879   0.624969253856216   1.0000000
N2   N   0.944463534126901   0.388901660707609   0.624870345942191   1.0000000
N2   N   0.111118593404235   0.388904991789772   0.125235545348428   1.0000000
N2   N   0.277780549021882   0.888883889950456   0.125142273175141   1.0000000
N2   N   0.611131807871438   0.888910299454267   0.125110592874732   1.0000000
N2   N   0.444411082980210   0.388872208156768   0.123467725628466   1.0000000
N2   N   0.944463534126901   0.888895206752620   0.125129654057809   1.0000000
N2   N   0.777799055058202   0.388881953720196   0.125003192167037   1.0000000
N2   N   0.277784557808153   0.555570631473392   0.624619579744282   1.0000000
N2   N   0.111118593404235   0.055546934947791   0.624764454651571   1.0000000
N2   N   0.611137910888246   0.555637134768720   0.626582292432572   1.0000000
N2   N   0.444453858950944   0.055551209411809   0.624716744281166   1.0000000
N2   N   0.944443287010026   0.555560850404172   0.624742168000196   1.0000000
N2   N   0.111112524505621   0.555568804069197   0.125157410075208   1.0000000
N2   N   0.777810028448602   0.055571680890968   0.624980718459226   1.0000000
N2   N   0.277784557808153   0.055547259668097   0.125380420255718   1.0000000
N2   N   0.444461336968889   0.555568610728259   0.125104387975175   1.0000000
N2   N   0.777758070532382   0.555545701932859   0.125047853160616   1.0000000
N2   N   0.611131807871438   0.055554841750500   0.125110592874732   1.0000000
N2   N   0.444461336968889   0.555568610728259   0.624895612024825   1.0000000
N2   N   0.944469026206079   0.055565541317655   0.125044600202630   1.0000000
N2   N   0.277780549021882   0.722229992404755   0.624857726824859   1.0000000
N2   N   0.111112535999054   0.222222934666192   0.624793154186787   1.0000000
N2   N   0.444461336968889   0.222226059573968   0.624895612024825   1.0000000
N2   N   0.611139811633136   0.722264997409998   0.625007257012379   1.0000000
N2   N   0.944443287010026   0.722215769939189   0.624742168000196   1.0000000
N2   N   0.777813170938705   0.222223935011153   0.624969253856216   1.0000000
N2   N   0.111109540054772   0.722221436694053   0.125127252882816   1.0000000
N2   N   0.444453858950944   0.722235982872469   0.125283255718834   1.0000000
N2   N   0.277779705115542   0.222222949120066   0.125349541441237   1.0000000
N2   N   0.777799055058202   0.722250434671334   0.125003192167037   1.0000000
N2   N   0.611139811633136   0.222208147556467   0.124992742987621   1.0000000
N2   N   0.944469026206079   0.222236818221758   0.125044600202630   1.0000000
N2   N   0.111118593404235   0.388904991789772   0.624764454651571   1.0000000
N2   N   0.277780549021882   0.888883889950456   0.624857726824859   1.0000000
N2   N   0.611131807871438   0.888910299454267   0.624889407125269   1.0000000
N2   N   0.444411082980210   0.388872208156768   0.626532274371533   1.0000000
N2   N   0.944463534126901   0.888895206752620   0.624870345942191   1.0000000
N2   N   0.111112524505621   0.888877053769752   0.125157410075208   1.0000000
N2   N   0.777799055058202   0.388881953720196   0.624996807832963   1.0000000
N2   N   0.444453288537069   0.888893310935199   0.125123289872990   1.0000000
N2   N   0.277779705115542   0.388890089328804   0.125349541441237   1.0000000
N2   N   0.277784557808153   0.555570631473392   0.125380420255718   1.0000000
N2   N   0.611137910888246   0.388834109452855   0.123417707567429   1.0000000
N2   N   0.777813170938705   0.888922569260879   0.125030746143785   1.0000000
N2   N   0.944463534126901   0.388901660707609   0.125129654057809   1.0000000
N2   N   0.111112524505621   0.555568804069197   0.624842589924794   1.0000000
N2   N   0.277784557808153   0.055547259668097   0.624619579744282   1.0000000
N2   N   0.777758070532382   0.555545701932859   0.624952146839383   1.0000000
N2   N   0.611131807871438   0.055554841750500   0.624889407125269   1.0000000
N2   N   0.944469026206079   0.055565541317655   0.624955399797367   1.0000000
N2   N   0.054595959402048   0.110495825437116   0.375000000000000   1.0000000
N2   N   0.555514397845647   0.620711674896808   0.375000000000000   1.0000000
N2   N   0.386976287972165   0.105546734981374   0.375000000000000   1.0000000
N2   N   0.891286625320337   0.612309979326840   0.375000000000000   1.0000000
N2   N   0.722693727620595   0.110345995613772   0.375000000000000   1.0000000
N2   N   0.055552938135096   0.777779158752567   0.875000000000000   1.0000000
N2   N   0.388892339090924   0.777779226658521   0.875000000000000   1.0000000
N2   N   0.222221359219882   0.277777346276609   0.875000000000000   1.0000000
N2   N   0.722217584049319   0.777776257700717   0.875000000000000   1.0000000
N2   N   0.555547157667432   0.277769074006528   0.875000000000000   1.0000000
N2   N   0.888888110908578   0.277776801265707   0.875000000000000   1.0000000
N2   N   0.221569755475044   0.777451544404189   0.375000000000000   1.0000000
N2   N   0.054595959402048   0.277433467298268   0.375000000000000   1.0000000
N2   N   0.376844139964665   0.259213917520698   0.375000000000000   1.0000000
N2   N   0.555244137271862   0.781838045938658   0.375000000000000   1.0000000
N2   N   0.892587338070980   0.781246856184329   0.375000000000000   1.0000000
N2   N   0.723898661120831   0.275834939804095   0.375000000000000   1.0000000
N2   N   0.055553539667807   0.944447342254856   0.875000000000000   1.0000000
N2   N   0.388892339090924   0.944446445765741   0.875000000000000   1.0000000
N2   N   0.222221441735440   0.444440980192772   0.875000000000000   1.0000000
N2   N   0.555549316297708   0.444441324815518   0.875000000000000   1.0000000
N2   N   0.722218211465927   0.944442753212717   0.875000000000000   1.0000000
N2   N   0.888887239452768   0.444441878253219   0.875000000000000   1.0000000
N2   N   0.054915548783870   0.444807255846448   0.375000000000000   1.0000000
N2   N   0.221033501444600   0.942276899086522   0.375000000000000   1.0000000
N2   N   0.555240191089815   0.944286762211572   0.375000000000000   1.0000000
N2   N   0.376844139964665   0.450963555777304   0.375000000000000   1.0000000
N2   N   0.889531220357438   0.945594432862379   0.375000000000000   1.0000000
N2   N   0.731676323708520   0.444335433361253   0.375000000000000   1.0000000
N2   N   0.222221478348053   0.611107221686428   0.875000000000000   1.0000000
N2   N   0.055553475790535   0.111111158555266   0.875000000000000   1.0000000
N2   N   0.555547157667432   0.611111416994241   0.875000000000000   1.0000000
N2   N   0.388889004090291   0.111111132224429   0.875000000000000   1.0000000
N2   N   0.888887330077532   0.611110331705437   0.875000000000000   1.0000000
N2   N   0.055973276621407   0.611576253230359   0.375000000000000   1.0000000
N2   N   0.722218211465927   0.111108791586547   0.875000000000000   1.0000000
N2   N   0.217050380789855   0.104801181040066   0.375000000000000   1.0000000
N2   N   0.386976287972165   0.614762886324133   0.375000000000000   1.0000000
N2   N   0.731676323708520   0.620674223680603   0.375000000000000   1.0000000
N2   N   0.555244137271862   0.106739424666542   0.375000000000000   1.0000000
N2   N   0.388889004090291   0.611111205199204   0.875000000000000   1.0000000
N2   N   0.888974550362417   0.111153941847879   0.375000000000000   1.0000000
N2   N   0.222222441871902   0.777777887602618   0.875000000000000   1.0000000
N2   N   0.055553475790535   0.277775650568604   0.875000000000000   1.0000000
N2   N   0.388885802152389   0.277772729176253   0.875000000000000   1.0000000
N2   N   0.555552763323141   0.777778026118011   0.875000000000000   1.0000000
N2   N   0.888887239452768   0.777778694532884   0.875000000000000   1.0000000
N2   N   0.722217584049319   0.277774659681939   0.875000000000000   1.0000000
N2   N   0.055973276621407   0.777730356724386   0.375000000000000   1.0000000
N2   N   0.387891121437237   0.778731094180520   0.375000000000000   1.0000000
N2   N   0.219929759788569   0.276631546560952   0.375000000000000   1.0000000
N2   N   0.723898661120831   0.781397054650072   0.375000000000000   1.0000000
N2   N   0.555514397845647   0.268136056282177   0.375000000000000   1.0000000
N2   N   0.889531220357438   0.277270120828394   0.375000000000000   1.0000000
N2   N   0.055553539667807   0.444439530746279   0.875000000000000   1.0000000
N2   N   0.222221478348053   0.944447589994960   0.875000000000000   1.0000000
N2   N   0.555554284107328   0.944443808720328   0.875000000000000   1.0000000
N2   N   0.388885802152389   0.444446406309471   0.875000000000000   1.0000000
N2   N   0.888888110908578   0.944444642976205   0.875000000000000   1.0000000
N2   N   0.054915548783870   0.943441626270753   0.375000000000000   1.0000000
N2   N   0.722219672294518   0.444443455825934   0.875000000000000   1.0000000
N2   N   0.387891121437237   0.942493360590052   0.375000000000000   1.0000000
N2   N   0.217050380789855   0.445582533083125   0.375000000000000   1.0000000
N2   N   0.221033501444600   0.612089935691415   0.375000000000000   1.0000000
N2   N   0.722693727620595   0.945681065340158   0.375000000000000   1.0000000
N2   N   0.892587338070980   0.444673815219988   0.375000000000000   1.0000000
N2   N   0.055552938135096   0.611107112715866   0.875000000000000   1.0000000
N2   N   0.222221441735440   0.111113794876003   0.875000000000000   1.0000000
N2   N   0.722219672294518   0.611109549801919   0.875000000000000   1.0000000
N2   N   0.555552763323141   0.111108070538465   0.875000000000000   1.0000000
N2   N   0.888887204490619   0.111110268911980   0.875000000000000   1.0000000
B2   B   0.107469065385676   0.052490796710998   0.375000000000000   1.0000000
B2   B   0.624453042337003   0.582452268641138   0.375000000000000   1.0000000
B2   B   0.444140336791938   0.051847085243613   0.375000000000000   1.0000000
B2   B   0.945992762009693   0.555802330634936   0.375000000000000   1.0000000
B2   B   0.778400921480965   0.055867127407151   0.375000000000000   1.0000000
B2   B   0.111108159573801   0.722220746453564   0.875000000000000   1.0000000
B2   B   0.444454703064177   0.722249828128791   0.875000000000000   1.0000000
B2   B   0.277755274646182   0.222200891443383   0.875000000000000   1.0000000
B2   B   0.777788035583834   0.722240480366266   0.875000000000000   1.0000000
B2   B   0.611124603919530   0.222205657567668   0.875000000000000   1.0000000
B2   B   0.944419241465084   0.222206869796585   0.875000000000000   1.0000000
B2   B   0.277044792904607   0.722807091222206   0.375000000000000   1.0000000
B2   B   0.108480046375431   0.220906689854380   0.375000000000000   1.0000000
B2   B   0.443531514277545   0.213740056936651   0.375000000000000   1.0000000
B2   B   0.612669668036997   0.730405989348342   0.375000000000000   1.0000000
B2   B   0.945992762009693   0.723523764708092   0.375000000000000   1.0000000
B2   B   0.779020430571810   0.220759225280024   0.375000000000000   1.0000000
B2   B   0.111099381637720   0.888880474018144   0.875000000000000   1.0000000
B2   B   0.444456797081472   0.888895065207401   0.875000000000000   1.0000000
B2   B   0.277755274646182   0.388887716536127   0.875000000000000   1.0000000
B2   B   0.611125373982077   0.388888968189356   0.875000000000000   1.0000000
B2   B   0.777779663311941   0.888903385507305   0.875000000000000   1.0000000
B2   B   0.944433194503358   0.388874387111288   0.875000000000000   1.0000000
B2   B   0.107469065385677   0.388311602008008   0.375000000000000   1.0000000
B2   B   0.277044792904607   0.887571035015731   0.375000000000000   1.0000000
B2   B   0.611906984323261   0.891464148517149   0.375000000000000   1.0000000
B2   B   0.945480756255556   0.890707665258558   0.375000000000000   1.0000000
B2   B   0.784017122068382   0.387333013620980   0.375000000000000   1.0000000
B2   B   0.277767365596464   0.555568566636703   0.875000000000000   1.0000000
B2   B   0.111080830093035   0.055536612686613   0.875000000000000   1.0000000
B2   B   0.611125373982077   0.555569739126050   0.875000000000000   1.0000000
B2   B   0.444454703064177   0.055538208268723   0.875000000000000   1.0000000
B2   B   0.944447326459312   0.555552604049022   0.875000000000000   1.0000000
B2   B   0.110431372662100   0.555787867375680   0.375000000000000   1.0000000
B2   B   0.777773307667488   0.055553320500412   0.875000000000000   1.0000000
B2   B   0.275437751620163   0.051627678077169   0.375000000000000   1.0000000
B2   B   0.443531514277545   0.563124790674231   0.375000000000000   1.0000000
B2   B   0.781977282220932   0.557655307777135   0.375000000000000   1.0000000
B2   B   0.611906984323261   0.053776169139442   0.375000000000000   1.0000000
B2   B   0.444453862720982   0.555586042662992   0.875000000000000   1.0000000
B2   B   0.944039223533080   0.055829475086224   0.375000000000000   1.0000000
B2   B   0.277778900124343   0.722231003613339   0.875000000000000   1.0000000
B2   B   0.111070279551134   0.222201806442231   0.875000000000000   1.0000000
B2   B   0.444453862720982   0.222201153391328   0.875000000000000   1.0000000
B2   B   0.611124603919530   0.722252279685190   0.875000000000000   1.0000000
B2   B   0.944447326459312   0.722228055743625   0.875000000000000   1.0000000
B2   B   0.777779663311941   0.222209611137964   0.875000000000000   1.0000000
B2   B   0.111098856833037   0.722216095083182   0.375000000000000   1.0000000
B2   B   0.444140336791938   0.725626584881662   0.375000000000000   1.0000000
B2   B   0.267372752107741   0.212328183404444   0.375000000000000   1.0000000
B2   B   0.784017122068382   0.730017441780728   0.375000000000000   1.0000000
B2   B   0.612669668036997   0.215597012021983   0.375000000000000   1.0000000
B2   B   0.944039223533080   0.221543081780191   0.375000000000000   1.0000000
B2   B   0.111080830093035   0.388877550739751   0.875000000000000   1.0000000
B2   B   0.277778900124343   0.888881229844333   0.875000000000000   1.0000000
B2   B   0.611121793701802   0.888906678927728   0.875000000000000   1.0000000
B2   B   0.444461228515695   0.388897280924512   0.875000000000000   1.0000000
B2   B   0.944433194503358   0.888892140725399   0.875000000000000   1.0000000
B2   B   0.110431372662100   0.887976838619747   0.375000000000000   1.0000000
B2   B   0.777788035583834   0.388880888550896   0.875000000000000   1.0000000
B2   B   0.444298628437825   0.888815980885577   0.375000000000000   1.0000000
B2   B   0.267372752107740   0.388377902036626   0.375000000000000   1.0000000
B2   B   0.275437751620163   0.557143406876330   0.375000000000000   1.0000000
B2   B   0.624453042337003   0.375334107029193   0.375000000000000   1.0000000
B2   B   0.779020430571810   0.891594538625113   0.375000000000000   1.0000000
B2   B   0.945480756255556   0.388106424330326   0.375000000000000   1.0000000
B2   B   0.111099381637720   0.555552240952906   0.875000000000000   1.0000000
B2   B   0.277767365596464   0.055532132293094   0.875000000000000   1.0000000
B2   B   0.777792448014304   0.555562890673821   0.875000000000000   1.0000000
B2   B   0.611121793701802   0.055548448107401   0.875000000000000   1.0000000
B2   B   0.944419241465084   0.055545705001835   0.875000000000000   1.0000000
B2   B   0.055487407194400   0.111049788892998   0.124879641383253   1.0000000
B2   B   0.555665872731056   0.611237070261213   0.123970988009752   1.0000000
B2   B   0.388870558537495   0.110990311248126   0.124922505650104   1.0000000
B2   B   0.888943326847197   0.611138330090270   0.124962644880083   1.0000000
B2   B   0.722264951654968   0.111105766285865   0.124850485226011   1.0000000
B2   B   0.055559621447709   0.777756868453084   0.625057793857892   1.0000000
B2   B   0.388876300703251   0.777818448231985   0.625073377331409   1.0000000
B2   B   0.222091677303180   0.277712505318257   0.625263206316792   1.0000000
B2   B   0.722305511430710   0.777886227233904   0.625315373586013   1.0000000
B2   B   0.555665872731056   0.277762135803179   0.626029011990248   1.0000000
B2   B   0.888909577062501   0.277780788205304   0.625147798246810   1.0000000
B2   B   0.222199915929076   0.777766624631206   0.124881853308024   1.0000000
B2   B   0.055487407194400   0.277770951634738   0.124879641383253   1.0000000
B2   B   0.388875735459460   0.277696697861866   0.123784306477386   1.0000000
B2   B   0.555597819582904   0.777875411476704   0.124870137110928   1.0000000
B2   B   0.888946359493890   0.777816588910788   0.124898914251974   1.0000000
B2   B   0.722305511430710   0.277752617530141   0.124684626413986   1.0000000
B2   B   0.055528840231893   0.944382721076240   0.625079862063052   1.0000000
B2   B   0.388876300703251   0.944391185804602   0.625073377331409   1.0000000
B2   B   0.222131153174787   0.444501448256736   0.625049231695442   1.0000000
B2   B   0.555722265771154   0.444527799552241   0.626762731876141   1.0000000
B2   B   0.722264951654968   0.944492518702439   0.625149514773989   1.0000000
B2   B   0.888946359493890   0.444463103916440   0.625101085748026   1.0000000
B2   B   0.055528840231893   0.444479452488981   0.124920137936947   1.0000000
B2   B   0.222181004794287   0.944348028104436   0.124946033285192   1.0000000
B2   B   0.555578416063050   0.944455874698188   0.124899304247473   1.0000000
B2   B   0.388875735459460   0.444512370930929   0.123784306477386   1.0000000
B2   B   0.888909577062501   0.944462122190533   0.124852201753191   1.0000000
B2   B   0.722306228945410   0.444441593252223   0.124064607260611   1.0000000
B2   B   0.222181004794287   0.611166310023187   0.625053966714810   1.0000000
B2   B   0.055487407194400   0.111049788892998   0.625120358616747   1.0000000
B2   B   0.555665872731056   0.611237070261213   0.626029011990248   1.0000000
B2   B   0.388870558537495   0.110990311248126   0.625077494349896   1.0000000
B2   B   0.888943326847197   0.611138330090270   0.625037355119919   1.0000000
B2   B   0.055559621447709   0.611136086327959   0.124942206142108   1.0000000
B2   B   0.722264951654968   0.111105766285865   0.625149514773989   1.0000000
B2   B   0.222131153174787   0.110963038251386   0.124950768304558   1.0000000
B2   B   0.388870558537495   0.611213580622711   0.124922505650104   1.0000000
B2   B   0.722306228945410   0.611197969026525   0.124064607260611   1.0000000
B2   B   0.555597819582904   0.111055741439534   0.124870137110928   1.0000000
B2   B   0.388870558537495   0.611213580622711   0.625077494349896   1.0000000
B2   B   0.888889826900806   0.111111580117075   0.124832764452938   1.0000000
B2   B   0.222199915929076   0.777766624631206   0.625118146691976   1.0000000
B2   B   0.055487407194400   0.277770951634738   0.625120358616747   1.0000000
B2   B   0.388875735459460   0.277696697861866   0.626215693522613   1.0000000
B2   B   0.555597819582904   0.777875411476704   0.625129862889071   1.0000000
B2   B   0.888946359493890   0.777816588910788   0.625101085748026   1.0000000
B2   B   0.722305511430710   0.277752617530141   0.625315373586013   1.0000000
B2   B   0.055559621447709   0.777756868453084   0.124942206142108   1.0000000
B2   B   0.388876300703251   0.777818448231985   0.124926622668591   1.0000000
B2   B   0.222091677303180   0.277712505318257   0.124736793683209   1.0000000
B2   B   0.722305511430710   0.777886227233904   0.124684626413986   1.0000000
B2   B   0.555665872731056   0.277762135803179   0.123970988009752   1.0000000
B2   B   0.888909577062501   0.277780788205304   0.124852201753191   1.0000000
B2   B   0.055528840231893   0.444479452488981   0.625079862063052   1.0000000
B2   B   0.222181004794287   0.944348028104436   0.625053966714810   1.0000000
B2   B   0.555578416063050   0.944455874698188   0.625100695752526   1.0000000
B2   B   0.388875735459460   0.444512370930929   0.626215693522613   1.0000000
B2   B   0.888909577062501   0.944462122190533   0.625147798246810   1.0000000
B2   B   0.055528840231893   0.944382721076240   0.124920137936947   1.0000000
B2   B   0.722306228945410   0.444441593252223   0.625935392739389   1.0000000
B2   B   0.388876300703251   0.944391185804602   0.124926622668591   1.0000000
B2   B   0.222131153174787   0.444501448256736   0.124950768304558   1.0000000
B2   B   0.222181004794287   0.611166310023187   0.124946033285192   1.0000000
B2   B   0.555722265771154   0.444527799552241   0.123237268123859   1.0000000
B2   B   0.722264951654968   0.944492518702439   0.124850485226011   1.0000000
B2   B   0.888946359493890   0.444463103916440   0.124898914251974   1.0000000
B2   B   0.055559621447709   0.611136086327959   0.625057793857892   1.0000000
B2   B   0.222131153174787   0.110963038251386   0.625049231695442   1.0000000
B2   B   0.722306228945410   0.611197969026525   0.625935392739389   1.0000000
B2   B   0.555597819582904   0.111055741439534   0.625129862889071   1.0000000
B2   B   0.888889826900806   0.111111580117075   0.625167235547062   1.0000000


