data_1
_audit_creation_method   'vasp2cif'
_cell_length_a    17.52789999999977
_cell_length_b    17.52789999999977
_cell_length_c    15.0
_cell_angle_alpha    90.0
_cell_angle_beta    90.0
_cell_angle_gamma    119.99999999999916

_symmetry_space_group_name_H-M    'P 1'
loop_
_atom_site_label
_atom_site_type_symbol
_atom_site_fract_x
_atom_site_fract_y
_atom_site_fract_z
_atom_site_occupancy
B2   B   0.905723279045525   0.953143891295152   0.111022502605683   1.0000000
B2   B   0.904720600144442   0.095281146547557   0.111060527461987   1.0000000
B2   B   0.904399178850841   0.237917218894891   0.111057211703345   1.0000000
B2   B   0.904713614823793   0.380867444195966   0.111003159512251   1.0000000
B2   B   0.905717860690118   0.523996719730546   0.111017024408790   1.0000000
B2   B   0.905429880799875   0.667018059368718   0.111052951846724   1.0000000
B2   B   0.905432725066771   0.809847008325134   0.111037388539921   1.0000000
B2   B   0.047752113483749   0.952249609881247   0.111003609264818   1.0000000
B2   B   0.046857824046850   0.094278441426481   0.111022502132682   1.0000000
B2   B   0.046307657378867   0.237151776252686   0.110990745632740   1.0000000
B2   B   0.046291495952310   0.380578846760089   0.110989373258999   1.0000000
B2   B   0.046854455053178   0.524006270764891   0.111001304036366   1.0000000
B2   B   0.047757675904190   0.666943809211363   0.111028979792473   1.0000000
B2   B   0.047863001462449   0.809656210679554   0.110991602307780   1.0000000
B2   B   0.190345539013447   0.952138761630562   0.110991600781783   1.0000000
B2   B   0.190154692710862   0.094568987641235   0.111037384415924   1.0000000
B2   B   0.187453163100081   0.235004638554243   0.110936800240669   1.0000000
B2   B   0.187274295813028   0.379342340008965   0.110909291208961   1.0000000
B2   B   0.187448051453261   0.523856120567984   0.110968770269021   1.0000000
B2   B   0.190150272309814   0.667011052820670   0.111053450196445   1.0000000
B2   B   0.190358764234192   0.809642930306809   0.110999754948310   1.0000000
B2   B   0.333057926493632   0.952244047929814   0.111028982206471   1.0000000
B2   B   0.332983654608280   0.094571859120127   0.111052947469724   1.0000000
B2   B   0.332887785741969   0.237195050471144   0.110998385447527   1.0000000
B2   B   0.326171086605357   0.374934209477824   0.111141805897351   1.0000000
B2   B   0.326178417165259   0.522694337959242   0.111129852326510   1.0000000
B2   B   0.332871234045758   0.667130468728240   0.111022859384414   1.0000000
B2   B   0.332990600499334   0.809851356533180   0.111053453729449   1.0000000
B2   B   0.475995416654112   0.953147125876818   0.111001309347368   1.0000000
B2   B   0.476005021775457   0.094283961985881   0.111017033101790   1.0000000
B2   B   0.476132589388065   0.235004969411439   0.110924733362141   1.0000000
B2   B   0.477313543216039   0.374909919854308   0.111170884382950   1.0000000
B2   B   0.477307446473753   0.673823440174747   0.111129852840517   1.0000000
B2   B   0.476145595222012   0.812553635614737   0.110968776006021   1.0000000
B2   B   0.619422892211920   0.953710188464689   0.110989375365999   1.0000000
B2   B   0.619134226152032   0.095288072458207   0.111003160598252   1.0000000
B2   B   0.619435422539184   0.237157334032527   0.110984754902438   1.0000000
B2   B   0.620641953897388   0.379359780311612   0.110892053425926   1.0000000
B2   B   0.625091649115696   0.522688123986965   0.111170879124948   1.0000000
B2   B   0.625067439977174   0.673830637110638   0.111141805610349   1.0000000
B2   B   0.620659403151033   0.812727473589971   0.110909286860958   1.0000000
B2   B   0.762849964275313   0.953694062148135   0.110990747858735   1.0000000
B2   B   0.762084476866108   0.095602497683154   0.111057214106344   1.0000000
B2   B   0.762087162231087   0.237914542948910   0.111062286785046   1.0000000
B2   B   0.762844488351475   0.380566332891817   0.110984746495439   1.0000000
B2   B   0.764996782764557   0.523869093418946   0.110924725398144   1.0000000
B2   B   0.762806608299854   0.667113894803030   0.110998394075526   1.0000000
B2   B   0.764997032869760   0.812548553581921   0.110936802714665   1.0000000
Ge2   Ge   0.476223334204226   0.523778321342770   0.111548783228419   1.0000000
N2   N   0.952826989422698   0.905021113843978   0.111010842355377   1.0000000
N2   N   0.952305232576012   0.047696484733985   0.111030630102800   1.0000000
N2   N   0.951616374407231   0.190112734949050   0.111031704683124   1.0000000
N2   N   0.951607267009136   0.332934288416007   0.111000273179846   1.0000000
N2   N   0.952303764214344   0.476036764956573   0.110977335727116   1.0000000
N2   N   0.952826016889129   0.619236462233211   0.111032780576000   1.0000000
N2   N   0.952928767230343   0.762181519055833   0.111036430908097   1.0000000
N2   N   0.095314967233531   0.904686785234473   0.110947822989383   1.0000000
N2   N   0.094980591594026   0.047174729392301   0.111010848852374   1.0000000
N2   N   0.093083317526447   0.188665424304293   0.110959463696830   1.0000000
N2   N   0.092821794966916   0.332127061909836   0.110934095739950   1.0000000
N2   N   0.093076040670121   0.475840108969281   0.110968997051863   1.0000000
N2   N   0.094976580733724   0.619238262069280   0.111014608890358   1.0000000
N2   N   0.095319627088288   0.762069549769824   0.110975774951384   1.0000000
N2   N   0.237932162391179   0.904682083669711   0.110975775843385   1.0000000
N2   N   0.237820210321174   0.047073001733655   0.111036423485100   1.0000000
N2   N   0.237284494970454   0.189384929957942   0.110962738194566   1.0000000
N2   N   0.232351155463754   0.328777217871377   0.110847357276367   1.0000000
N2   N   0.232348610037669   0.474991163875686   0.110860518218631   1.0000000
N2   N   0.237269866873491   0.619319689301010   0.110991694013548   1.0000000
N2   N   0.237822830338964   0.762178803856030   0.111045050821431   1.0000000
N2   N   0.380763409033719   0.905025045049277   0.111014613040361   1.0000000
N2   N   0.380765264953783   0.047175734030869   0.111032788323999   1.0000000
N2   N   0.380678916746483   0.189387648022555   0.110965488106206   1.0000000
N2   N   0.380468769954476   0.332371924781397   0.111043388625032   1.0000000
N2   N   0.362010303158815   0.466731194225182   0.111509406636375   1.0000000
N2   N   0.380460664979290   0.619541132979710   0.111034765233053   1.0000000
N2   N   0.380682049187989   0.762731840006507   0.110991698634548   1.0000000
N2   N   0.524161623258721   0.906925554845878   0.110969010829862   1.0000000
N2   N   0.523964893392423   0.047697897545660   0.110977336172122   1.0000000
N2   N   0.524166851811470   0.188666099471238   0.110955557356681   1.0000000
N2   N   0.525001122762189   0.328777874010237   0.110842466134923   1.0000000
N2   N   0.533306609478721   0.466694987146288   0.111629578324200   1.0000000
N2   N   0.533270465057819   0.637991378980186   0.111509408214377   1.0000000
N2   N   0.525010618737321   0.767653246290334   0.110860515402629   1.0000000
N2   N   0.667874728702161   0.907179952506085   0.110934093526951   1.0000000
N2   N   0.667067381314982   0.048394387239868   0.111000271711850   1.0000000
N2   N   0.667071891735437   0.190113150990376   0.111012530703906   1.0000000
N2   N   0.667870644856591   0.332131165692409   0.110929374088728   1.0000000
N2   N   0.671223790121752   0.475000593247810   0.110842445735923   1.0000000
N2   N   0.667629705862603   0.619532924590521   0.111043391260030   1.0000000
N2   N   0.671224448582620   0.767650602004244   0.110847350145367   1.0000000
N2   N   0.811336288211712   0.906918397507555   0.110959464072835   1.0000000
N2   N   0.809888990327950   0.048385334665766   0.111031714370124   1.0000000
N2   N   0.809523291288985   0.190478363403014   0.111064034613905   1.0000000
N2   N   0.809888587117621   0.332929793425568   0.111012524763911   1.0000000
N2   N   0.811335792083761   0.475834902638537   0.110955536845679   1.0000000
N2   N   0.810614073344444   0.619322787300515   0.110965503459209   1.0000000
N2   N   0.810616732136059   0.762717196813557   0.110962749490561   1.0000000


