data_1
_audit_creation_method   'vasp2cif'
_cell_length_a    14.93631414619966
_cell_length_b    14.936314146199727
_cell_length_c    13.341276283792837
_cell_angle_alpha    90.0
_cell_angle_beta    90.0
_cell_angle_gamma    119.99999999999984

_symmetry_space_group_name_H-M    'P 1'
loop_
_atom_site_label
_atom_site_type_symbol
_atom_site_fract_x
_atom_site_fract_y
_atom_site_fract_z
_atom_site_occupancy
As2   As   0.444444444444443   0.388888888888886   0.375000000000000   1.0000000
N2   N   0.111130419568956   0.055580497226107   0.125157931605261   1.0000000
N2   N   0.611058370048590   0.555507083225490   0.122918921385151   1.0000000
N2   N   0.444450077657163   0.055580497226107   0.125157931605261   1.0000000
N2   N   0.944435966063185   0.555549174715714   0.125176398786709   1.0000000
N2   N   0.777777777777779   0.055555555555557   0.125102530395810   1.0000000
N2   N   0.111111111111114   0.722222222222221   0.624976514212035   1.0000000
N2   N   0.444450077657163   0.722202913764373   0.624842068394714   1.0000000
N2   N   0.277826250107840   0.222274963284764   0.627081078614815   1.0000000
N2   N   0.777752836107243   0.722202913764373   0.624842068394714   1.0000000
N2   N   0.611104395877576   0.222228937455787   0.625169255555643   1.0000000
N2   N   0.944436873482891   0.222218548137099   0.624779702048941   1.0000000
N2   N   0.277784158617607   0.722220124680819   0.125176398786709   1.0000000
N2   N   0.111124541578258   0.222228937455787   0.124830744444335   1.0000000
N2   N   0.444448713176927   0.222274963284764   0.122918921385150   1.0000000
N2   N   0.611104395877576   0.722208791755045   0.124830744444335   1.0000000
N2   N   0.944435966063185   0.722220124680819   0.125176398786709   1.0000000
N2   N   0.777781674654223   0.222218548137099   0.125220297951046   1.0000000
N2   N   0.111113208652520   0.888897367270144   0.624823601213293   1.0000000
N2   N   0.444453018290496   0.888893175811931   0.624740693064436   1.0000000
N2   N   0.277826250107840   0.388884620156402   0.627081078614815   1.0000000
N2   N   0.611058370048590   0.388884620156402   0.627081078614816   1.0000000
N2   N   0.777781674654223   0.888896459850437   0.624779702048941   1.0000000
N2   N   0.944440157521398   0.388880315042832   0.624740693064436   1.0000000
N2   N   0.111130419568956   0.388883255676166   0.125157931605261   1.0000000
N2   N   0.277784158617607   0.888897367270144   0.125176398786709   1.0000000
N2   N   0.611114785196258   0.888896459850437   0.125220297951046   1.0000000
N2   N   0.444444444444443   0.388888888888886   0.115180958047675   1.0000000
N2   N   0.944440157521398   0.888893175811931   0.125259306935586   1.0000000
N2   N   0.777752836107243   0.388883255676166   0.125157931605261   1.0000000
N2   N   0.277795392326994   0.555537941006355   0.625153741794051   1.0000000
N2   N   0.111130419568956   0.055580497226107   0.624842068394714   1.0000000
N2   N   0.611058370048580   0.555507083225490   0.627081078614816   1.0000000
N2   N   0.444450077657163   0.055580497226107   0.624842068394714   1.0000000
N2   N   0.944435966063185   0.555549174715714   0.624823601213293   1.0000000
N2   N   0.111113208652520   0.555549174715714   0.125176398786709   1.0000000
N2   N   0.777777777777779   0.055555555555557   0.624897469604157   1.0000000
N2   N   0.277795392326994   0.055590784653995   0.124846258205963   1.0000000
N2   N   0.444448713176927   0.555507083225490   0.122918921385151   1.0000000
N2   N   0.777742548679347   0.555537941006355   0.124846258205963   1.0000000
N2   N   0.611114785196258   0.055551658679115   0.125220297951046   1.0000000
N2   N   0.444448713176927   0.555507083225490   0.627081078614816   1.0000000
N2   N   0.944436873482891   0.055551658679115   0.125220297951046   1.0000000
N2   N   0.277784158617607   0.722220124680819   0.624823601213293   1.0000000
N2   N   0.111124541578258   0.222228937455787   0.625169255555643   1.0000000
N2   N   0.444448713176927   0.222274963284764   0.627081078614815   1.0000000
N2   N   0.611104395877576   0.722208791755045   0.625169255555643   1.0000000
N2   N   0.944435966063185   0.722220124680819   0.624823601213293   1.0000000
N2   N   0.777781674654223   0.222218548137099   0.624779702048941   1.0000000
N2   N   0.111111111111114   0.722222222222221   0.125023485787959   1.0000000
N2   N   0.444450077657163   0.722202913764373   0.125157931605261   1.0000000
N2   N   0.277826250107840   0.222274963284764   0.122918921385150   1.0000000
N2   N   0.777752836107243   0.722202913764373   0.125157931605261   1.0000000
N2   N   0.611104395877576   0.222228937455787   0.124830744444335   1.0000000
N2   N   0.944436873482891   0.222218548137099   0.125220297951046   1.0000000
N2   N   0.111130419568956   0.388883255676166   0.624842068394714   1.0000000
N2   N   0.277784158617604   0.888897367270144   0.624823601213293   1.0000000
N2   N   0.611114785196258   0.888896459850437   0.624779702048941   1.0000000
N2   N   0.444444444444443   0.388888888888886   0.634819041952344   1.0000000
N2   N   0.944440157521398   0.888893175811931   0.624740693064436   1.0000000
N2   N   0.111113208652520   0.888897367270144   0.125176398786709   1.0000000
N2   N   0.777752836107243   0.388883255676166   0.624842068394714   1.0000000
N2   N   0.444453018290496   0.888893175811931   0.125259306935586   1.0000000
N2   N   0.277826250107840   0.388884620156402   0.122918921385151   1.0000000
N2   N   0.277795392326994   0.555537941006355   0.124846258205963   1.0000000
N2   N   0.611058370048580   0.388884620156402   0.122918921385151   1.0000000
N2   N   0.777781674654223   0.888896459850437   0.125220297951046   1.0000000
N2   N   0.944440157521398   0.388880315042832   0.125259306935586   1.0000000
N2   N   0.111113208652520   0.555549174715714   0.624823601213293   1.0000000
N2   N   0.277795392326994   0.055590784653995   0.625153741794051   1.0000000
N2   N   0.777742548679350   0.555537941006355   0.625153741794051   1.0000000
N2   N   0.611114785196258   0.055551658679115   0.624779702048941   1.0000000
N2   N   0.944436873482891   0.055551658679115   0.624779702048941   1.0000000
N2   N   0.054588724232102   0.110458095892131   0.375000000000000   1.0000000
N2   N   0.555964643993557   0.611929287987038   0.375000000000000   1.0000000
N2   N   0.387522831180455   0.104668701682940   0.375000000000000   1.0000000
N2   N   0.891229607355244   0.612281470344276   0.375000000000000   1.0000000
N2   N   0.722397165256106   0.110936168077222   0.375000000000000   1.0000000
N2   N   0.055557210235953   0.777776123097364   0.875000000000000   1.0000000
N2   N   0.388887639163107   0.777784239746648   0.875000000000000   1.0000000
N2   N   0.222207372474965   0.277770352904152   0.875000000000000   1.0000000
N2   N   0.722227415782380   0.777783536595583   0.875000000000000   1.0000000
N2   N   0.555562980429212   0.277770352904152   0.875000000000000   1.0000000
N2   N   0.888890509442161   0.277781018884315   0.875000000000000   1.0000000
N2   N   0.221775936276889   0.777554634805111   0.375000000000000   1.0000000
N2   N   0.054588724232102   0.277463961673325   0.375000000000000   1.0000000
N2   N   0.377531240167699   0.255062480335422   0.375000000000000   1.0000000
N2   N   0.555869371660023   0.778744609101249   0.375000000000000   1.0000000
N2   N   0.890658898246556   0.779181657685917   0.375000000000000   1.0000000
N2   N   0.722875237441167   0.277463961673325   0.375000000000000   1.0000000
N2   N   0.055549093586695   0.944436732749787   0.875000000000000   1.0000000
N2   N   0.388887639163107   0.944436732749787   0.875000000000000   1.0000000
N2   N   0.222206541687543   0.444448649757203   0.875000000000000   1.0000000
N2   N   0.555596029912267   0.444464681622798   0.875000000000000   1.0000000
N2   N   0.722220612507788   0.944441225015534   0.875000000000000   1.0000000
N2   N   0.888896600583542   0.444445694170221   0.875000000000000   1.0000000
N2   N   0.054151675647403   0.444810573893974   0.375000000000000   1.0000000
N2   N   0.221051862989027   0.942103725978085   0.375000000000000   1.0000000
N2   N   0.555834500534619   0.944583916933939   0.375000000000000   1.0000000
N2   N   0.377531240167698   0.455802093165629   0.375000000000000   1.0000000
N2   N   0.888749416399390   0.944583916933939   0.375000000000000   1.0000000
N2   N   0.728664631650397   0.445810502152873   0.375000000000000   1.0000000
N2   N   0.222214226125035   0.611119107208276   0.875000000000000   1.0000000
N2   N   0.055549796737765   0.111105917550968   0.875000000000000   1.0000000
N2   N   0.555562980429212   0.611125960858368   0.875000000000000   1.0000000
N2   N   0.388884683576126   0.111091225263672   0.875000000000000   1.0000000
N2   N   0.888904881083233   0.611119107208276   0.875000000000000   1.0000000
N2   N   0.055778698528219   0.611557397056427   0.375000000000000   1.0000000
N2   N   0.722220612507788   0.111112720825559   0.875000000000000   1.0000000
N2   N   0.217145870502463   0.104668701682940   0.375000000000000   1.0000000
N2   N   0.387522831180455   0.616187462830873   0.375000000000000   1.0000000
N2   N   0.728664631650397   0.616187462830873   0.375000000000000   1.0000000
N2   N   0.555869371660023   0.110458095892131   0.375000000000000   1.0000000
N2   N   0.388884683576126   0.611126791645801   0.875000000000000   1.0000000
N2   N   0.888539002821116   0.110936168077222   0.375000000000000   1.0000000
N2   N   0.222218912861423   0.777776123097364   0.875000000000000   1.0000000
N2   N   0.055549796737765   0.277777212520141   0.875000000000000   1.0000000
N2   N   0.388868651710531   0.277737303421080   0.875000000000000   1.0000000
N2   N   0.555556120813211   0.777783536595583   0.875000000000000   1.0000000
N2   N   0.888896600583542   0.777784239746648   0.875000000000000   1.0000000
N2   N   0.722227415782380   0.277777212520141   0.875000000000000   1.0000000
N2   N   0.055778698528219   0.777554634805111   0.375000000000000   1.0000000
N2   N   0.388522759439355   0.779181657685917   0.375000000000000   1.0000000
N2   N   0.221404045346238   0.277368689339817   0.375000000000000   1.0000000
N2   N   0.722875237441167   0.778744609101249   0.375000000000000   1.0000000
N2   N   0.555964643993557   0.277368689339817   0.375000000000000   1.0000000
N2   N   0.888749416399390   0.277498832798716   0.375000000000000   1.0000000
N2   N   0.055549093586695   0.444445694170221   0.875000000000000   1.0000000
N2   N   0.222214226125035   0.944428452250096   0.875000000000000   1.0000000
N2   N   0.555552314449034   0.944442823891168   0.875000000000000   1.0000000
N2   N   0.388868651710531   0.444464681622798   0.875000000000000   1.0000000
N2   N   0.888890509442161   0.944442823891168   0.875000000000000   1.0000000
N2   N   0.054151675647402   0.942674435086773   0.375000000000000   1.0000000
N2   N   0.722242108069685   0.444448649757203   0.875000000000000   1.0000000
N2   N   0.388522759439355   0.942674435086773   0.375000000000000   1.0000000
N2   N   0.217145870502463   0.445810502152873   0.375000000000000   1.0000000
N2   N   0.221051862989027   0.612281470344276   0.375000000000000   1.0000000
N2   N   0.578270852997930   0.455802093165629   0.375000000000000   1.0000000
N2   N   0.722397165256106   0.944794330512213   0.375000000000000   1.0000000
N2   N   0.890658898246556   0.444810573893974   0.375000000000000   1.0000000
N2   N   0.055557210235953   0.611114420471898   0.875000000000000   1.0000000
N2   N   0.222206541687543   0.111091225263672   0.875000000000000   1.0000000
N2   N   0.722242108069685   0.611126791645801   0.875000000000000   1.0000000
N2   N   0.555556120813211   0.111105917550968   0.875000000000000   1.0000000
N2   N   0.888892108317795   0.111112720825559   0.875000000000000   1.0000000
B2   B   0.107724683295315   0.052377427258722   0.375000000000000   1.0000000
B2   B   0.619588122878054   0.562981159514894   0.375000000000000   1.0000000
B2   B   0.444652743963389   0.052377427258722   0.375000000000000   1.0000000
B2   B   0.945482734412257   0.555860026084547   0.375000000000000   1.0000000
B2   B   0.777777777777779   0.055555555555557   0.375000000000000   1.0000000
B2   B   0.111111111111114   0.722222222222221   0.875000000000000   1.0000000
B2   B   0.444436089866321   0.722211534029153   0.875000000000000   1.0000000
B2   B   0.277802114141786   0.222231537229652   0.875000000000000   1.0000000
B2   B   0.777775444162865   0.722211534029153   0.875000000000000   1.0000000
B2   B   0.611101991498036   0.222231341835302   0.875000000000000   1.0000000
B2   B   0.944450361011182   0.222225452956176   0.875000000000000   1.0000000
B2   B   0.277473307248797   0.722956041661073   0.375000000000000   1.0000000
B2   B   0.109992607075098   0.221662970204205   0.375000000000000   1.0000000
B2   B   0.443393036636813   0.213745210455289   0.375000000000000   1.0000000
B2   B   0.611670363129098   0.723340726258221   0.375000000000000   1.0000000
B2   B   0.945482734412257   0.722956041661073   0.375000000000000   1.0000000
B2   B   0.777911789006391   0.221752222572912   0.375000000000000   1.0000000
B2   B   0.111114688216764   0.888890262748041   0.875000000000000   1.0000000
B2   B   0.444440754368696   0.888887043851011   0.875000000000000   1.0000000
B2   B   0.277802114141786   0.388903910245439   0.875000000000000   1.0000000
B2   B   0.611101796103681   0.388903910245439   0.875000000000000   1.0000000
B2   B   0.777775091945021   0.888882972322147   0.875000000000000   1.0000000
B2   B   0.944446289482318   0.388892578964632   0.875000000000000   1.0000000
B2   B   0.107724683295315   0.388680589369940   0.375000000000000   1.0000000
B2   B   0.277473307248797   0.887850598921072   0.375000000000000   1.0000000
B2   B   0.611581110760440   0.889492899766795   0.375000000000000   1.0000000
B2   B   0.944257495702880   0.889075837630449   0.375000000000000   1.0000000
B2   B   0.780955906074599   0.388680589369940   0.375000000000000   1.0000000
B2   B   0.277778044491846   0.555555288841509   0.875000000000000   1.0000000
B2   B   0.111121799304151   0.055557889170476   0.875000000000000   1.0000000
B2   B   0.611101796103681   0.555531219191503   0.875000000000000   1.0000000
B2   B   0.444436089866321   0.055557889170476   0.875000000000000   1.0000000
B2   B   0.944443070585288   0.555557758802079   0.875000000000000   1.0000000
B2   B   0.110377291672293   0.555860026084547   0.375000000000000   1.0000000
B2   B   0.777777777777779   0.055555555555557   0.875000000000000   1.0000000
B2   B   0.275981618530268   0.051963237060532   0.375000000000000   1.0000000
B2   B   0.443393036636813   0.562981159514894   0.375000000000000   1.0000000
B2   B   0.781370096272799   0.557351714803046   0.375000000000000   1.0000000
B2   B   0.611581110760440   0.055421544326963   0.375000000000000   1.0000000
B2   B   0.444429423087890   0.555531219191503   0.875000000000000   1.0000000
B2   B   0.943840433566533   0.055421544326963   0.375000000000000   1.0000000
B2   B   0.277775574531261   0.722218645116570   0.875000000000000   1.0000000
B2   B   0.111129350337267   0.222231341835302   0.875000000000000   1.0000000
B2   B   0.444429423087890   0.222231537229652   0.875000000000000   1.0000000
B2   B   0.611101991498036   0.722203982996082   0.875000000000000   1.0000000
B2   B   0.944443070585288   0.722218645116570   0.875000000000000   1.0000000
B2   B   0.777775091945021   0.222225452956176   0.875000000000000   1.0000000
B2   B   0.111111111111114   0.722222222222221   0.375000000000000   1.0000000
B2   B   0.444652743963389   0.725608650038062   0.375000000000000   1.0000000
B2   B   0.270352173818462   0.213745210455289   0.375000000000000   1.0000000
B2   B   0.780955906074599   0.725608650038062   0.375000000000000   1.0000000
B2   B   0.611670363129098   0.221662970204205   0.375000000000000   1.0000000
B2   B   0.943840433566533   0.221752222572912   0.375000000000000   1.0000000
B2   B   0.111121799304151   0.388897243467007   0.875000000000000   1.0000000
B2   B   0.277775574531261   0.888890262748041   0.875000000000000   1.0000000
B2   B   0.611107880377151   0.888882972322147   0.875000000000000   1.0000000
B2   B   0.444444444444443   0.388888888888886   0.875000000000000   1.0000000
B2   B   0.944446289482318   0.888887043851011   0.875000000000000   1.0000000
B2   B   0.110377291672293   0.887850598921072   0.375000000000000   1.0000000
B2   B   0.777775444162865   0.388897243467007   0.875000000000000   1.0000000
B2   B   0.444818341927511   0.889075837630449   0.375000000000000   1.0000000
B2   B   0.270352173818462   0.389940296696516   0.375000000000000   1.0000000
B2   B   0.275981618530268   0.557351714803046   0.375000000000000   1.0000000
B2   B   0.619588122878054   0.389940296696516   0.375000000000000   1.0000000
B2   B   0.777911789006391   0.889492899766795   0.375000000000000   1.0000000
B2   B   0.944257495702880   0.388514991405818   0.375000000000000   1.0000000
B2   B   0.111114688216764   0.555557758802079   0.875000000000000   1.0000000
B2   B   0.277778044491846   0.055556088983700   0.875000000000000   1.0000000
B2   B   0.777777244349644   0.555555288841509   0.875000000000000   1.0000000
B2   B   0.611107880377151   0.055558241388333   0.875000000000000   1.0000000
B2   B   0.944450361011182   0.055558241388333   0.875000000000000   1.0000000
B2   B   0.055561987910639   0.111131037191003   0.125069196153401   1.0000000
B2   B   0.555521997715330   0.611043995430676   0.123429745303533   1.0000000
B2   B   0.388920817319585   0.111209690722847   0.124410230813626   1.0000000
B2   B   0.888849373655100   0.611091353494235   0.125090653985754   1.0000000
B2   B   0.722223275454679   0.111110057878693   0.125153240677101   1.0000000
B2   B   0.055552088749997   0.777781244583361   0.624921808644746   1.0000000
B2   B   0.388909356964257   0.777772862579361   0.624811354601359   1.0000000
B2   B   0.222289337902665   0.277811335617997   0.626570254696488   1.0000000
B2   B   0.722202296142354   0.777771345422665   0.624930803846583   1.0000000
B2   B   0.555521997715330   0.277811335617997   0.626570254696488   1.0000000
B2   B   0.888883673856078   0.277767347712188   0.624768276207467   1.0000000
B2   B   0.222229155833348   0.777781244583361   0.125078191355236   1.0000000
B2   B   0.055561987910639   0.277764284052979   0.125069196153401   1.0000000
B2   B   0.389014701565263   0.278029403130529   0.120330395682775   1.0000000
B2   B   0.555569049280344   0.777771345422665   0.125069196153401   1.0000000
B2   B   0.888863505615144   0.777772862579361   0.125188645398695   1.0000000
B2   B   0.722202296142354   0.277764284052979   0.125069196153401   1.0000000
B2   B   0.055560470753937   0.944469827718184   0.624811354601359   1.0000000
B2   B   0.388909356964257   0.944469827718184   0.624811354601359   1.0000000
B2   B   0.222288873403252   0.444412516013744   0.625589769186343   1.0000000
B2   B   0.555303930202803   0.444318631768066   0.629669604317231   1.0000000
B2   B   0.722223275454679   0.944446550909271   0.624846759322937   1.0000000
B2   B   0.888863505615144   0.444423976369072   0.624811354601359   1.0000000
B2   B   0.055560470753936   0.444423976369072   0.125188645398695   1.0000000
B2   B   0.222241979839116   0.944483959678237   0.125090653985754   1.0000000
B2   B   0.555565985621141   0.944449659477251   0.125231723792514   1.0000000
B2   B   0.389014701565263   0.444318631768066   0.120330395682775   1.0000000
B2   B   0.888883673856078   0.944449659477251   0.125231723792514   1.0000000
B2   B   0.722123642610528   0.444412516013744   0.124410230813626   1.0000000
B2   B   0.222241979839116   0.611091353494235   0.624909346014252   1.0000000
B2   B   0.055561987910639   0.111131037191003   0.624930803846583   1.0000000
B2   B   0.555521997715330   0.611043995430676   0.626570254696488   1.0000000
B2   B   0.388920817319585   0.111209690722847   0.625589769186343   1.0000000
B2   B   0.888849373655100   0.611091353494235   0.624909346014252   1.0000000
B2   B   0.055552088749997   0.611104177499965   0.125078191355236   1.0000000
B2   B   0.722223275454679   0.111110057878693   0.624846759322937   1.0000000
B2   B   0.222288873403252   0.111209690722847   0.124410230813626   1.0000000
B2   B   0.388920817319585   0.611044459930078   0.124410230813625   1.0000000
B2   B   0.722123642610528   0.611044459930078   0.124410230813625   1.0000000
B2   B   0.555569049280344   0.111131037191003   0.125069196153401   1.0000000
B2   B   0.388920817319585   0.611044459930078   0.625589769186343   1.0000000
B2   B   0.888886782424057   0.111110057878693   0.125153240677101   1.0000000
B2   B   0.222229155833348   0.777781244583361   0.624921808644746   1.0000000
B2   B   0.055561987910639   0.277764284052979   0.624930803846583   1.0000000
B2   B   0.389014701565263   0.278029403130529   0.629669604317231   1.0000000
B2   B   0.555569049280344   0.777771345422665   0.624930803846583   1.0000000
B2   B   0.888863505615144   0.777772862579361   0.624811354601359   1.0000000
B2   B   0.722202296142354   0.277764284052979   0.624930803846583   1.0000000
B2   B   0.055552088749997   0.777781244583361   0.125078191355236   1.0000000
B2   B   0.388909356964257   0.777772862579361   0.125188645398695   1.0000000
B2   B   0.222289337902665   0.277811335617997   0.123429745303533   1.0000000
B2   B   0.722202296142354   0.777771345422665   0.125069196153401   1.0000000
B2   B   0.555521997715330   0.277811335617997   0.123429745303533   1.0000000
B2   B   0.888883673856078   0.277767347712188   0.125231723792514   1.0000000
B2   B   0.055560470753936   0.444423976369072   0.624811354601359   1.0000000
B2   B   0.222241979839116   0.944483959678237   0.624909346014252   1.0000000
B2   B   0.555565985621141   0.944449659477251   0.624768276207467   1.0000000
B2   B   0.389014701565263   0.444318631768066   0.629669604317231   1.0000000
B2   B   0.888883673856078   0.944449659477251   0.624768276207467   1.0000000
B2   B   0.055560470753937   0.944469827718184   0.125188645398695   1.0000000
B2   B   0.722123642610528   0.444412516013744   0.625589769186343   1.0000000
B2   B   0.388909356964257   0.944469827718184   0.125188645398695   1.0000000
B2   B   0.222288873403252   0.444412516013744   0.124410230813625   1.0000000
B2   B   0.222241979839116   0.611091353494235   0.125090653985754   1.0000000
B2   B   0.555303930202803   0.444318631768066   0.120330395682775   1.0000000
B2   B   0.722223275454679   0.944446550909271   0.125153240677101   1.0000000
B2   B   0.888863505615144   0.444423976369072   0.125188645398695   1.0000000
B2   B   0.055552088749997   0.611104177499965   0.624921808644746   1.0000000
B2   B   0.222288873403252   0.111209690722847   0.625589769186343   1.0000000
B2   B   0.722123642610528   0.611044459930078   0.625589769186343   1.0000000
B2   B   0.555569049280344   0.111131037191003   0.624930803846583   1.0000000
B2   B   0.888886782424057   0.111110057878693   0.624846759322937   1.0000000


