data_1
_audit_creation_method   'vasp2cif'
_cell_length_a    14.93631414619966
_cell_length_b    14.936314146199727
_cell_length_c    13.341276283792837
_cell_angle_alpha    90.0
_cell_angle_beta    90.0
_cell_angle_gamma    119.99999999999984

_symmetry_space_group_name_H-M    'P 1'
loop_
_atom_site_label
_atom_site_type_symbol
_atom_site_fract_x
_atom_site_fract_y
_atom_site_fract_z
_atom_site_occupancy
N2   N   0.111079559796908   0.055560853192429   0.125012155733684   1.0000000
N2   N   0.611109891606393   0.555535510084852   0.125093175932276   1.0000000
N2   N   0.444445980535633   0.055560734049568   0.125046617556996   1.0000000
N2   N   0.944445353336911   0.555548347357580   0.124866012420122   1.0000000
N2   N   0.777723839704799   0.055528586519071   0.124875714049570   1.0000000
N2   N   0.111116302399135   0.722224817866228   0.625141188685115   1.0000000
N2   N   0.444445980535633   0.722218579819401   0.624953382443005   1.0000000
N2   N   0.277748040140374   0.222222798035460   0.624161694729520   1.0000000
N2   N   0.777762963245907   0.722213035930931   0.625124240565441   1.0000000
N2   N   0.611090058010467   0.222221624442359   0.624885394572305   1.0000000
N2   N   0.944387152792481   0.222189178201538   0.625166129769306   1.0000000
N2   N   0.277782887899696   0.722213017466485   0.124896144633606   1.0000000
N2   N   0.111057375401793   0.222195354367561   0.125132184966730   1.0000000
N2   N   0.444463038113251   0.222231774189595   0.125712008350309   1.0000000
N2   N   0.611090058010467   0.722201766901429   0.125114605427702   1.0000000
N2   N   0.944445353336911   0.722230339312660   0.124866012420122   1.0000000
N2   N   0.777735569232191   0.222203645509578   0.124895689798214   1.0000000
N2   N   0.111109951911064   0.888909424914710   0.625099891352883   1.0000000
N2   N   0.444439286595213   0.888886309964268   0.625130530357843   1.0000000
N2   N   0.277748040140374   0.388858575438242   0.624161694729520   1.0000000
N2   N   0.611109891606393   0.388907714854862   0.624906824067725   1.0000000
N2   N   0.777735569232191   0.888865257055950   0.625104310201786   1.0000000
N2   N   0.944421053071323   0.388863990230039   0.625166346105112   1.0000000
N2   N   0.111079559796908   0.388852039937800   0.125012155733684   1.0000000
N2   N   0.277782887899696   0.888903203766539   0.124896144633606   1.0000000
N2   N   0.611082422634647   0.888873711343414   0.124933089575537   1.0000000
N2   N   0.444481583423826   0.388907458378574   0.125448844180759   1.0000000
N2   N   0.944421053071323   0.888890396174605   0.124833653894888   1.0000000
N2   N   0.777762963245907   0.388883260648304   0.124875759434559   1.0000000
N2   N   0.277781209818503   0.555532527521587   0.624726256268042   1.0000000
N2   N   0.111079559796908   0.055560853192429   0.624987844266315   1.0000000
N2   N   0.611109891606393   0.555535510084852   0.624906824067725   1.0000000
N2   N   0.444445980535633   0.055560734049568   0.624953382443005   1.0000000
N2   N   0.944445353336911   0.555548347357580   0.625133987579878   1.0000000
N2   N   0.111109951911064   0.555533860329682   0.124900108647116   1.0000000
N2   N   0.777723839704799   0.055528586519071   0.625124285950430   1.0000000
N2   N   0.277781209818503   0.055582015630251   0.125273743731958   1.0000000
N2   N   0.444463038113251   0.555564597256992   0.125712008350309   1.0000000
N2   N   0.777779181036891   0.555556257185116   0.124912326830269   1.0000000
N2   N   0.611082422634647   0.055542044624568   0.124933089575537   1.0000000
N2   N   0.444463038113251   0.555564597256992   0.624287991649691   1.0000000
N2   N   0.944387152792481   0.055531307924278   0.124833870230694   1.0000000
N2   N   0.277782887899696   0.722213017466485   0.625103855366394   1.0000000
N2   N   0.111057375401793   0.222195354367561   0.624867815033270   1.0000000
N2   N   0.444463038113251   0.222231774189595   0.624287991649691   1.0000000
N2   N   0.611090058010467   0.722201766901429   0.624885394572305   1.0000000
N2   N   0.944445353336911   0.722230339312660   0.625133987579878   1.0000000
N2   N   0.777735569232191   0.222203645509578   0.625104310201786   1.0000000
N2   N   0.111116302399135   0.722224817866228   0.124858811314885   1.0000000
N2   N   0.444445980535633   0.722218579819401   0.125046617556996   1.0000000
N2   N   0.277748040140374   0.222222798035460   0.125838305270480   1.0000000
N2   N   0.777762963245907   0.722213035930931   0.124875759434559   1.0000000
N2   N   0.611090058010467   0.222221624442359   0.125114605427702   1.0000000
N2   N   0.944387152792481   0.222189178201538   0.124833870230694   1.0000000
N2   N   0.111079559796908   0.388852039937800   0.624987844266315   1.0000000
N2   N   0.277782887899696   0.888903203766539   0.625103855366394   1.0000000
N2   N   0.611082422634647   0.888873711343414   0.625066910424463   1.0000000
N2   N   0.444481583423826   0.388907458378574   0.624551155819241   1.0000000
N2   N   0.944421053071323   0.888890396174605   0.625166346105112   1.0000000
N2   N   0.111109951911064   0.888909424914710   0.124900108647116   1.0000000
N2   N   0.777762963245907   0.388883260648304   0.625124240565441   1.0000000
N2   N   0.444439286595213   0.888886309964268   0.124869469642157   1.0000000
N2   N   0.277748040140374   0.388858575438242   0.125838305270480   1.0000000
N2   N   0.277781209818503   0.555532527521587   0.125273743731958   1.0000000
N2   N   0.611109891606393   0.388907714854862   0.125093175932276   1.0000000
N2   N   0.777735569232191   0.888865257055950   0.124895689798214   1.0000000
N2   N   0.944421053071323   0.388863990230039   0.124833653894888   1.0000000
N2   N   0.111109951911064   0.555533860329682   0.625099891352883   1.0000000
N2   N   0.277781209818503   0.055582015630251   0.624726256268042   1.0000000
N2   N   0.777779181036891   0.555556257185116   0.625087673169731   1.0000000
N2   N   0.611082422634647   0.055542044624568   0.625066910424463   1.0000000
N2   N   0.944387152792481   0.055531307924278   0.625166129769306   1.0000000
N2   N   0.053935230601032   0.110067445149840   0.375000000000000   1.0000000
N2   N   0.556598550888599   0.602124527441113   0.375000000000000   1.0000000
N2   N   0.389981837678926   0.112006191640992   0.375000000000000   1.0000000
N2   N   0.891628747251182   0.612481040292262   0.375000000000000   1.0000000
N2   N   0.721614985779466   0.111569566617885   0.375000000000000   1.0000000
N2   N   0.055551292551735   0.777774362577787   0.875000000000000   1.0000000
N2   N   0.388880416982528   0.777774715056909   0.875000000000000   1.0000000
N2   N   0.222217163360610   0.277775248346969   0.875000000000000   1.0000000
N2   N   0.722218799864706   0.777774036404488   0.875000000000000   1.0000000
N2   N   0.555549291684312   0.277776153406031   0.875000000000000   1.0000000
N2   N   0.888888770437514   0.277781669586653   0.875000000000000   1.0000000
N2   N   0.223522287854325   0.778427810593834   0.375000000000000   1.0000000
N2   N   0.053935230601032   0.277201118784528   0.375000000000000   1.0000000
N2   N   0.386102436733731   0.274942899553254   0.375000000000000   1.0000000
N2   N   0.556197844641741   0.774694218970130   0.375000000000000   1.0000000
N2   N   0.889120854219491   0.777161205827574   0.375000000000000   1.0000000
N2   N   0.721779403221778   0.279628586359235   0.375000000000000   1.0000000
N2   N   0.055551436391922   0.944438166818082   0.875000000000000   1.0000000
N2   N   0.388880416982528   0.944439035258954   0.875000000000000   1.0000000
N2   N   0.222215319916221   0.444444909699745   0.875000000000000   1.0000000
N2   N   0.555552424492094   0.444442878912715   0.875000000000000   1.0000000
N2   N   0.722216359913942   0.944440651057316   0.875000000000000   1.0000000
N2   N   0.888890579037182   0.444447838904061   0.875000000000000   1.0000000
N2   N   0.054890858039439   0.444623155917493   0.375000000000000   1.0000000
N2   N   0.223073579327004   0.945045729945704   0.375000000000000   1.0000000
N2   N   0.556057214384477   0.944695273858902   0.375000000000000   1.0000000
N2   N   0.386102436733731   0.444492870513812   0.375000000000000   1.0000000
N2   N   0.887818753459026   0.943233974860806   0.375000000000000   1.0000000
N2   N   0.723321053210870   0.446962625278143   0.375000000000000   1.0000000
N2   N   0.222213608800463   0.611110223504519   0.875000000000000   1.0000000
N2   N   0.055552308909798   0.111106558552932   0.875000000000000   1.0000000
N2   N   0.555549291684312   0.611106471611616   0.875000000000000   1.0000000
N2   N   0.388880841054850   0.111106235731696   0.875000000000000   1.0000000
N2   N   0.888890680241099   0.611112006787225   0.875000000000000   1.0000000
N2   N   0.057000363739586   0.611809244681477   0.375000000000000   1.0000000
N2   N   0.722216359913942   0.111109042189969   0.875000000000000   1.0000000
N2   N   0.220288243797607   0.109647324759008   0.375000000000000   1.0000000
N2   N   0.389981837678926   0.611308979371269   0.375000000000000   1.0000000
N2   N   0.723321053210870   0.609691761266070   0.375000000000000   1.0000000
N2   N   0.556197844641741   0.114836959004947   0.375000000000000   1.0000000
N2   N   0.388880841054850   0.611107938656497   0.875000000000000   1.0000000
N2   N   0.887547444214023   0.110440388773683   0.375000000000000   1.0000000
N2   N   0.222213733966608   0.777773533649968   0.875000000000000   1.0000000
N2   N   0.055552308909798   0.277779083690201   0.875000000000000   1.0000000
N2   N   0.388882011662964   0.277772784420403   0.875000000000000   1.0000000
N2   N   0.555546874969603   0.777773507589227   0.875000000000000   1.0000000
N2   N   0.888890579037182   0.777776073466457   0.875000000000000   1.0000000
N2   N   0.722218799864706   0.277778096793553   0.875000000000000   1.0000000
N2   N   0.057000363739586   0.778524452391445   0.375000000000000   1.0000000
N2   N   0.389992637518465   0.778066186654197   0.375000000000000   1.0000000
N2   N   0.220178311491026   0.276755822412184   0.375000000000000   1.0000000
N2   N   0.721779403221778   0.775484150195871   0.375000000000000   1.0000000
N2   N   0.556598550888599   0.287807356780822   0.375000000000000   1.0000000
N2   N   0.887818753459026   0.277918111931556   0.375000000000000   1.0000000
N2   N   0.055551436391922   0.444446602907168   0.875000000000000   1.0000000
N2   N   0.222213608800463   0.944436718629280   0.875000000000000   1.0000000
N2   N   0.555545736643189   0.944439534988256   0.875000000000000   1.0000000
N2   N   0.388882011662964   0.444442560575890   0.875000000000000   1.0000000
N2   N   0.888888770437514   0.944440434184195   0.875000000000000   1.0000000
N2   N   0.054890858039439   0.943601035455276   0.375000000000000   1.0000000
N2   N   0.722222231302134   0.444445780102670   0.875000000000000   1.0000000
N2   N   0.389992637518465   0.945259784197611   0.375000000000000   1.0000000
N2   N   0.220288243797607   0.443974252371935   0.375000000000000   1.0000000
N2   N   0.223073579327004   0.611361182714642   0.375000000000000   1.0000000
N2   N   0.721614985779466   0.943378752494924   0.375000000000000   1.0000000
N2   N   0.889120854219491   0.445292981725253   0.375000000000000   1.0000000
N2   N   0.055551292551735   0.611110263307283   0.875000000000000   1.0000000
N2   N   0.222215319916221   0.111103743549805   0.875000000000000   1.0000000
N2   N   0.722222231302134   0.611109784532800   0.875000000000000   1.0000000
N2   N   0.555546874969603   0.111106700713719   0.875000000000000   1.0000000
N2   N   0.888887485402910   0.111110409368123   0.875000000000000   1.0000000
B2   B   0.110247803977148   0.054894488638435   0.375000000000000   1.0000000
B2   B   0.612032061653813   0.541895997090228   0.375000000000000   1.0000000
B2   B   0.444931633058979   0.057043339976977   0.375000000000000   1.0000000
B2   B   0.946153139811790   0.556287116282361   0.375000000000000   1.0000000
B2   B   0.776596045210077   0.054964689271710   0.375000000000000   1.0000000
B2   B   0.111111855748281   0.722222594540801   0.875000000000000   1.0000000
B2   B   0.444419944954200   0.722171116555172   0.875000000000000   1.0000000
B2   B   0.277818352569940   0.222263942266840   0.875000000000000   1.0000000
B2   B   0.777748407690876   0.722187705070564   0.875000000000000   1.0000000
B2   B   0.611068532830623   0.222243306039012   0.875000000000000   1.0000000
B2   B   0.944479118356789   0.222241332303367   0.875000000000000   1.0000000
B2   B   0.278891829790026   0.722429082150295   0.375000000000000   1.0000000
B2   B   0.110254398527992   0.221793865930660   0.375000000000000   1.0000000
B2   B   0.443279097303601   0.225453451631701   0.375000000000000   1.0000000
B2   B   0.610435120539133   0.715450207938964   0.375000000000000   1.0000000
B2   B   0.946153139811790   0.723199356862765   0.375000000000000   1.0000000
B2   B   0.776664021188759   0.222961300157052   0.375000000000000   1.0000000
B2   B   0.111123841989687   0.888908944996116   0.875000000000000   1.0000000
B2   B   0.444423137698111   0.888878235515720   0.875000000000000   1.0000000
B2   B   0.277818352569940   0.388887743636428   0.875000000000000   1.0000000
B2   B   0.611053548803967   0.388885018136457   0.875000000000000   1.0000000
B2   B   0.777769617531731   0.888867169406425   0.875000000000000   1.0000000
B2   B   0.944456134356390   0.388898297851508   0.875000000000000   1.0000000
B2   B   0.110247803977148   0.388686648672048   0.375000000000000   1.0000000
B2   B   0.278891829790026   0.889796080973053   0.375000000000000   1.0000000
B2   B   0.610586509738342   0.886818475599448   0.375000000000000   1.0000000
B2   B   0.944033403805003   0.888155378899203   0.375000000000000   1.0000000
B2   B   0.777661094800689   0.390368069839823   0.375000000000000   1.0000000
B2   B   0.277789523914918   0.555525341149317   0.875000000000000   1.0000000
B2   B   0.111154551236858   0.055591584764533   0.875000000000000   1.0000000
B2   B   0.611053548803967   0.555501864000838   0.875000000000000   1.0000000
B2   B   0.444419944954200   0.055582161732370   0.875000000000000   1.0000000
B2   B   0.944435784677805   0.555552514122320   0.875000000000000   1.0000000
B2   B   0.112071033505510   0.555770276549827   0.375000000000000   1.0000000
B2   B   0.777779339349789   0.055556336341562   0.875000000000000   1.0000000
B2   B   0.278505591023939   0.056865139406808   0.375000000000000   1.0000000
B2   B   0.443279097303601   0.551158979005243   0.375000000000000   1.0000000
B2   B   0.781367297145175   0.557350315239259   0.375000000000000   1.0000000
B2   B   0.610586509738342   0.057101367472215   0.375000000000000   1.0000000
B2   B   0.444414971506406   0.555488791445652   0.875000000000000   1.0000000
B2   B   0.943268564041600   0.054698641027575   0.375000000000000   1.0000000
B2   B   0.277774546458443   0.722205443832088   0.875000000000000   1.0000000
B2   B   0.111174287836286   0.222253810584804   0.875000000000000   1.0000000
B2   B   0.444414971506406   0.222259513394091   0.875000000000000   1.0000000
B2   B   0.611068532830623   0.722158560124939   0.875000000000000   1.0000000
B2   B   0.944435784677805   0.722216603888821   0.875000000000000   1.0000000
B2   B   0.777769617531731   0.222235781458628   0.875000000000000   1.0000000
B2   B   0.112572605594325   0.722952969463824   0.375000000000000   1.0000000
B2   B   0.444931633058979   0.721221626415345   0.375000000000000   1.0000000
B2   B   0.278344934259377   0.222498696792310   0.375000000000000   1.0000000
B2   B   0.777661094800689   0.720626358294196   0.375000000000000   1.0000000
B2   B   0.610435120539133   0.228318245933490   0.375000000000000   1.0000000
B2   B   0.943268564041600   0.221903256347354   0.375000000000000   1.0000000
B2   B   0.111154551236858   0.388896299805654   0.875000000000000   1.0000000
B2   B   0.277774546458443   0.888902435959683   0.875000000000000   1.0000000
B2   B   0.611084475444680   0.888858248079552   0.875000000000000   1.0000000
B2   B   0.444414351637321   0.388873842485325   0.875000000000000   1.0000000
B2   B   0.944456134356390   0.888891169838218   0.875000000000000   1.0000000
B2   B   0.112071033505510   0.889634090289012   0.375000000000000   1.0000000
B2   B   0.777748407690876   0.388894035953642   0.875000000000000   1.0000000
B2   B   0.445008666982446   0.889171000157887   0.375000000000000   1.0000000
B2   B   0.278344934259377   0.389179570800395   0.375000000000000   1.0000000
B2   B   0.278505591023939   0.554973784950465   0.375000000000000   1.0000000
B2   B   0.612032061653813   0.403469397896915   0.375000000000000   1.0000000
B2   B   0.776664021188759   0.887036054365035   0.375000000000000   1.0000000
B2   B   0.944033403805003   0.389211358239128   0.375000000000000   1.0000000
B2   B   0.111123841989687   0.555548230326899   0.875000000000000   1.0000000
B2   B   0.277789523914918   0.055597516098937   0.875000000000000   1.0000000
B2   B   0.777737841107183   0.555535587220260   0.875000000000000   1.0000000
B2   B   0.611084475444680   0.055559560698456   0.875000000000000   1.0000000
B2   B   0.944479118356789   0.055571119386759   0.875000000000000   1.0000000
B2   B   0.055622098738588   0.111193725761588   0.125254834424979   1.0000000
B2   B   0.555401734977653   0.610922173547322   0.125823075873373   1.0000000
B2   B   0.388944404665352   0.111314583817058   0.125816735865653   1.0000000
B2   B   0.888818220352362   0.611075776842856   0.125016400776887   1.0000000
B2   B   0.722159619508684   0.111094491400982   0.125062773933505   1.0000000
B2   B   0.055581529747812   0.777831495465570   0.624977959311193   1.0000000
B2   B   0.388925438800373   0.777732596649283   0.624853963472748   1.0000000
B2   B   0.222380135765669   0.277856734549502   0.623723687340410   1.0000000
B2   B   0.722108340747068   0.777683117099228   0.624851993357720   1.0000000
B2   B   0.555401734977653   0.277812894763666   0.624176924126627   1.0000000
B2   B   0.888862073700785   0.277745202643458   0.624988297876434   1.0000000
B2   B   0.222283730279962   0.777808531806652   0.125041134728248   1.0000000
B2   B   0.055622098738588   0.277761706310335   0.125254834424979   1.0000000
B2   B   0.388968590028372   0.278012542361922   0.127308717768796   1.0000000
B2   B   0.555504106319015   0.777675065195374   0.125298827681359   1.0000000
B2   B   0.888828177091382   0.777769035786727   0.125016432411915   1.0000000
B2   B   0.722108340747068   0.277758556981176   0.125148006642280   1.0000000
B2   B   0.055603686472407   0.944560027782900   0.624891921771138   1.0000000
B2   B   0.388925438800373   0.944526175484425   0.624853963472748   1.0000000
B2   B   0.222350052761430   0.444339092655652   0.624147187215505   1.0000000
B2   B   0.555232139283638   0.444282736308483   0.624001973431449   1.0000000
B2   B   0.722159619508684   0.944398461441045   0.624937226066496   1.0000000
B2   B   0.888828177091382   0.444392474637990   0.624983567588085   1.0000000
B2   B   0.055603686472407   0.444376992022836   0.125108078228862   1.0000000
B2   B   0.222303596692830   0.944607414635266   0.125243969438295   1.0000000
B2   B   0.555526933109219   0.944430133221270   0.125102150270088   1.0000000
B2   B   0.388968590028372   0.444289380999786   0.127308717768796   1.0000000
B2   B   0.888862073700785   0.944450204390663   0.125011702123566   1.0000000
B2   B   0.722027314382805   0.444369212989837   0.125179921956505   1.0000000
B2   B   0.222303596692830   0.611029515390900   0.624756030561705   1.0000000
B2   B   0.055622098738588   0.111193725761588   0.624745165575021   1.0000000
B2   B   0.555401734977653   0.610922173547322   0.624176924126627   1.0000000
B2   B   0.388944404665352   0.111314583817058   0.624183264134347   1.0000000
B2   B   0.888818220352362   0.611075776842856   0.624983599223113   1.0000000
B2   B   0.055581529747812   0.611083367615584   0.125022040688808   1.0000000
B2   B   0.722159619508684   0.111094491400982   0.624937226066496   1.0000000
B2   B   0.222350052761430   0.111344293439114   0.125852812784495   1.0000000
B2   B   0.388944404665352   0.610963154181636   0.125816735865653   1.0000000
B2   B   0.722027314382805   0.610991434726304   0.125179921956505   1.0000000
B2   B   0.555504106319015   0.111162374456970   0.125298827681359   1.0000000
B2   B   0.388944404665352   0.610963154181636   0.624183264134347   1.0000000
B2   B   0.888874983860011   0.111104158596677   0.125011931557549   1.0000000
B2   B   0.222283730279962   0.777808531806652   0.624958865271752   1.0000000
B2   B   0.055622098738588   0.277761706310335   0.624745165575021   1.0000000
B2   B   0.388968590028372   0.278012542361922   0.622691282231205   1.0000000
B2   B   0.555504106319015   0.777675065195374   0.624701172318641   1.0000000
B2   B   0.888828177091382   0.777769035786727   0.624983567588085   1.0000000
B2   B   0.722108340747068   0.277758556981176   0.624851993357720   1.0000000
B2   B   0.055581529747812   0.777831495465570   0.125022040688808   1.0000000
B2   B   0.388925438800373   0.777732596649283   0.125146036527252   1.0000000
B2   B   0.222380135765669   0.277856734549502   0.126276312659590   1.0000000
B2   B   0.722108340747068   0.777683117099228   0.125148006642280   1.0000000
B2   B   0.555401734977653   0.277812894763666   0.125823075873373   1.0000000
B2   B   0.888862073700785   0.277745202643458   0.125011702123566   1.0000000
B2   B   0.055603686472407   0.444376992022836   0.624891921771138   1.0000000
B2   B   0.222303596692830   0.944607414635266   0.624756030561705   1.0000000
B2   B   0.555526933109219   0.944430133221270   0.624897849729912   1.0000000
B2   B   0.388968590028372   0.444289380999786   0.622691282231205   1.0000000
B2   B   0.888862073700785   0.944450204390663   0.624988297876434   1.0000000
B2   B   0.055603686472407   0.944560027782900   0.125108078228862   1.0000000
B2   B   0.722027314382805   0.444369212989837   0.624820078043495   1.0000000
B2   B   0.388925438800373   0.944526175484425   0.125146036527252   1.0000000
B2   B   0.222350052761430   0.444339092655652   0.125852812784495   1.0000000
B2   B   0.222303596692830   0.611029515390900   0.125243969438295   1.0000000
B2   B   0.555232139283638   0.444282736308483   0.125998026568551   1.0000000
B2   B   0.722159619508684   0.944398461441045   0.125062773933505   1.0000000
B2   B   0.888828177091382   0.444392474637990   0.125016432411915   1.0000000
B2   B   0.055581529747812   0.611083367615584   0.624977959311193   1.0000000
B2   B   0.222350052761430   0.111344293439114   0.624147187215505   1.0000000
B2   B   0.722027314382805   0.610991434726304   0.624820078043495   1.0000000
B2   B   0.555504106319015   0.111162374456970   0.624701172318641   1.0000000
B2   B   0.888874983860011   0.111104158596677   0.624988068442452   1.0000000


