data_1
_audit_creation_method   'vasp2cif'
_cell_length_a    14.93631414619966
_cell_length_b    14.936314146199727
_cell_length_c    13.341276283792837
_cell_angle_alpha    90.0
_cell_angle_beta    90.0
_cell_angle_gamma    119.99999999999984

_symmetry_space_group_name_H-M    'P 1'
loop_
_atom_site_label
_atom_site_type_symbol
_atom_site_fract_x
_atom_site_fract_y
_atom_site_fract_z
_atom_site_occupancy
Sn2   Sn   0.507044000306099   0.420188666819714   0.375000000000000   1.0000000
N2   N   0.110805274139931   0.055412899257671   0.124873117878433   1.0000000
N2   N   0.611223679597927   0.555936106502478   0.123542302709691   1.0000000
N2   N   0.444269459650346   0.055464602441514   0.124874543577770   1.0000000
N2   N   0.944247086541016   0.555429677525462   0.124832610040794   1.0000000
N2   N   0.777589687900268   0.055461510616802   0.124846999744186   1.0000000
N2   N   0.110899507878532   0.722116420605929   0.625118722749111   1.0000000
N2   N   0.444269459650346   0.722138190542168   0.625125456422231   1.0000000
N2   N   0.277299321471415   0.221966028002691   0.626173542260958   1.0000000
N2   N   0.777679435004811   0.722324756606982   0.625854234867871   1.0000000
N2   N   0.611004689796668   0.222025069910141   0.625888112396624   1.0000000
N2   N   0.944189432627457   0.222064722972357   0.625116975186830   1.0000000
N2   N   0.277577146413980   0.722111591169224   0.124922140354444   1.0000000
N2   N   0.110728176191731   0.222030754762529   0.124782935809765   1.0000000
N2   N   0.444283656773076   0.222148671867265   0.124354659070337   1.0000000
N2   N   0.611004689796668   0.722312953219858   0.124111887603377   1.0000000
N2   N   0.944247086541016   0.722150742348890   0.124832610040794   1.0000000
N2   N   0.777621598635288   0.222037160333137   0.124812907343748   1.0000000
N2   N   0.110895420287163   0.888806404498936   0.625119359664345   1.0000000
N2   N   0.444256637590185   0.888794985461757   0.625090454598736   1.0000000
N2   N   0.277299321471415   0.388666626802053   0.626173542260958   1.0000000
N2   N   0.611223679597927   0.388620906428777   0.626457697290311   1.0000000
N2   N   0.777621598635288   0.888917771635479   0.625187092656252   1.0000000
N2   N   0.944242807649040   0.388728907947617   0.625086068172095   1.0000000
N2   N   0.110805274139931   0.388725708215588   0.124873117878433   1.0000000
N2   N   0.277577146413980   0.888798888578085   0.124922140354444   1.0000000
N2   N   0.610940608516900   0.888849135167390   0.124875996544623   1.0000000
N2   N   0.443566234372174   0.388449783852750   0.123743335341683   1.0000000
N2   N   0.944242807649040   0.888847233034753   0.124913931827904   1.0000000
N2   N   0.777679435004811   0.388688011731158   0.124145765132129   1.0000000
N2   N   0.277570386663269   0.555429965775598   0.625176166996034   1.0000000
N2   N   0.110805274139931   0.055412899257671   0.625126882121568   1.0000000
N2   N   0.611223679597927   0.555936106502478   0.626457697290311   1.0000000
N2   N   0.444269459650346   0.055464602441514   0.625125456422231   1.0000000
N2   N   0.944247086541016   0.555429677525462   0.625167389959206   1.0000000
N2   N   0.110895420287163   0.555422349121555   0.124880640335655   1.0000000
N2   N   0.777589687900268   0.055461510616802   0.625153000255813   1.0000000
N2   N   0.277570386663269   0.055473754221006   0.124823833003968   1.0000000
N2   N   0.444283656773076   0.555468318239143   0.124354659070337   1.0000000
N2   N   0.777630895111129   0.555482114222232   0.124439067149900   1.0000000
N2   N   0.610940608516900   0.055424806682838   0.124875996544623   1.0000000
N2   N   0.444283656773076   0.555468318239143   0.625645340929661   1.0000000
N2   N   0.944189432627457   0.055458042988435   0.124883024813168   1.0000000
N2   N   0.277577146413980   0.722111591169224   0.625077859645556   1.0000000
N2   N   0.110728176191731   0.222030754762529   0.625217064190235   1.0000000
N2   N   0.444283656773076   0.222148671867265   0.625645340929661   1.0000000
N2   N   0.611004689796668   0.722312953219858   0.625888112396624   1.0000000
N2   N   0.944247086541016   0.722150742348890   0.625167389959206   1.0000000
N2   N   0.777621598635288   0.222037160333137   0.625187092656252   1.0000000
N2   N   0.110899507878532   0.722116420605929   0.124881277250891   1.0000000
N2   N   0.444269459650346   0.722138190542168   0.124874543577770   1.0000000
N2   N   0.277299321471415   0.221966028002691   0.123826457739044   1.0000000
N2   N   0.777679435004811   0.722324756606982   0.124145765132129   1.0000000
N2   N   0.611004689796668   0.222025069910141   0.124111887603377   1.0000000
N2   N   0.944189432627457   0.222064722972357   0.124883024813168   1.0000000
N2   N   0.110805274139931   0.388725708215588   0.625126882121568   1.0000000
N2   N   0.277577146413980   0.888798888578085   0.625077859645556   1.0000000
N2   N   0.610940608516900   0.888849135167390   0.625124003455375   1.0000000
N2   N   0.443566234372174   0.388449783852750   0.626256664658318   1.0000000
N2   N   0.944242807649040   0.888847233034753   0.625086068172095   1.0000000
N2   N   0.110895420287163   0.888806404498936   0.124880640335655   1.0000000
N2   N   0.777679435004811   0.388688011731158   0.625854234867871   1.0000000
N2   N   0.444256637590185   0.888794985461757   0.124909545401264   1.0000000
N2   N   0.277299321471415   0.388666626802053   0.123826457739044   1.0000000
N2   N   0.277570386663269   0.555429965775598   0.124823833003968   1.0000000
N2   N   0.611223679597927   0.388620906428777   0.123542302709691   1.0000000
N2   N   0.777621598635288   0.888917771635479   0.124812907343748   1.0000000
N2   N   0.944242807649040   0.388728907947617   0.124913931827904   1.0000000
N2   N   0.110895420287163   0.555422349121555   0.625119359664345   1.0000000
N2   N   0.277570386663269   0.055473754221006   0.625176166996034   1.0000000
N2   N   0.777630895111130   0.555482114222232   0.625560932850098   1.0000000
N2   N   0.610940608516900   0.055424806682838   0.625124003455375   1.0000000
N2   N   0.944189432627457   0.055458042988435   0.625116975186830   1.0000000
N2   N   0.059203923642689   0.113084967432762   0.375000000000000   1.0000000
N2   N   0.556265027541513   0.626078684579612   0.375000000000000   1.0000000
N2   N   0.387558538085218   0.102966961595668   0.375000000000000   1.0000000
N2   N   0.886134299975782   0.609733816654562   0.375000000000000   1.0000000
N2   N   0.725097902977391   0.111128501303229   0.375000000000000   1.0000000
N2   N   0.055783092267795   0.777886369930559   0.875000000000000   1.0000000
N2   N   0.389078241413505   0.777886425272792   0.875000000000000   1.0000000
N2   N   0.222426675775760   0.277880004554549   0.875000000000000   1.0000000
N2   N   0.722412064058183   0.777853021739777   0.875000000000000   1.0000000
N2   N   0.555720422543199   0.277850246695746   0.875000000000000   1.0000000
N2   N   0.889087181112916   0.277892797332510   0.875000000000000   1.0000000
N2   N   0.220331994272000   0.776832663802669   0.375000000000000   1.0000000
N2   N   0.059203923642689   0.279452289543262   0.375000000000000   1.0000000
N2   N   0.388951421040343   0.266105467398440   0.375000000000000   1.0000000
N2   N   0.556308813954265   0.784651733837762   0.375000000000000   1.0000000
N2   N   0.889968669873697   0.779399986591431   0.375000000000000   1.0000000
N2   N   0.725034178260475   0.275436666948694   0.375000000000000   1.0000000
N2   N   0.055757918845820   0.944531288994767   0.875000000000000   1.0000000
N2   N   0.389078241413505   0.944525149474048   0.875000000000000   1.0000000
N2   N   0.222416253755802   0.444564358880254   0.875000000000000   1.0000000
N2   N   0.555736512072577   0.444534922702953   0.875000000000000   1.0000000
N2   N   0.722411838851493   0.944530934818393   0.875000000000000   1.0000000
N2   N   0.889106953972066   0.444570460361760   0.875000000000000   1.0000000
N2   N   0.056295620701508   0.445246869922888   0.375000000000000   1.0000000
N2   N   0.220622915528214   0.941602538230779   0.375000000000000   1.0000000
N2   N   0.556351448311527   0.944842390822430   0.375000000000000   1.0000000
N2   N   0.388951421040343   0.456179286975239   0.375000000000000   1.0000000
N2   N   0.892080014066097   0.947150890672181   0.375000000000000   1.0000000
N2   N   0.723008634883171   0.441054588553429   0.375000000000000   1.0000000
N2   N   0.222415826365245   0.611227616447526   0.875000000000000   1.0000000
N2   N   0.055759023768671   0.111204694687502   0.875000000000000   1.0000000
N2   N   0.555720422543199   0.611203509180789   0.875000000000000   1.0000000
N2   N   0.389064700129226   0.111165668872146   0.875000000000000   1.0000000
N2   N   0.889146506971721   0.611239920152534   0.875000000000000   1.0000000
N2   N   0.053771587186049   0.610697354276255   0.375000000000000   1.0000000
N2   N   0.722411838851493   0.111214237366435   0.875000000000000   1.0000000
N2   N   0.222601817514097   0.108860789154446   0.375000000000000   1.0000000
N2   N   0.387558538085218   0.617924909822892   0.375000000000000   1.0000000
N2   N   0.723008634883171   0.615287379663076   0.375000000000000   1.0000000
N2   N   0.556308813954265   0.104990413449837   0.375000000000000   1.0000000
N2   N   0.389064700129226   0.611232364590420   0.875000000000000   1.0000000
N2   N   0.892584258381639   0.112958795857491   0.375000000000000   1.0000000
N2   N   0.222428704787688   0.777881019060511   0.875000000000000   1.0000000
N2   N   0.055759023768671   0.277887662414504   0.875000000000000   1.0000000
N2   N   0.389078457081764   0.277834828672422   0.875000000000000   1.0000000
N2   N   0.555734566539801   0.777869670518238   0.875000000000000   1.0000000
N2   N   0.889106953972066   0.777869826943644   0.875000000000000   1.0000000
N2   N   0.722412064058183   0.277892375651740   0.875000000000000   1.0000000
N2   N   0.053771587186049   0.776407566243129   0.375000000000000   1.0000000
N2   N   0.387750424156817   0.779617714361190   0.375000000000000   1.0000000
N2   N   0.227277405596969   0.280305369465153   0.375000000000000   1.0000000
N2   N   0.725034178260475   0.782930844645116   0.375000000000000   1.0000000
N2   N   0.556265027541514   0.263519676295235   0.375000000000000   1.0000000
N2   N   0.892080014066098   0.278262456727250   0.375000000000000   1.0000000
N2   N   0.055757918845820   0.444559963184381   0.875000000000000   1.0000000
N2   N   0.222415826365245   0.944521543251054   0.875000000000000   1.0000000
N2   N   0.555743139156430   0.944538236244880   0.875000000000000   1.0000000
N2   N   0.389078457081764   0.444576961742680   0.875000000000000   1.0000000
N2   N   0.889087181112916   0.944527717113741   0.875000000000000   1.0000000
N2   N   0.056295620701508   0.944382084111948   0.375000000000000   1.0000000
N2   N   0.722454800808815   0.444581787729752   0.875000000000000   1.0000000
N2   N   0.387750424156816   0.941466043128964   0.375000000000000   1.0000000
N2   N   0.222601817514097   0.447074361692987   0.375000000000000   1.0000000
N2   N   0.220622915528214   0.612353710630770   0.375000000000000   1.0000000
N2   N   0.725097902977391   0.947302735007497   0.375000000000000   1.0000000
N2   N   0.889968669873697   0.443902016615603   0.375000000000000   1.0000000
N2   N   0.055783092267795   0.611230055670570   0.875000000000000   1.0000000
N2   N   0.222416253755802   0.111185228208883   0.875000000000000   1.0000000
N2   N   0.722454800808815   0.611206346412400   0.875000000000000   1.0000000
N2   N   0.555734566539801   0.111198229354900   0.875000000000000   1.0000000
N2   N   0.889088882490603   0.111211107911973   0.875000000000000   1.0000000
B2   B   0.113039802968994   0.055683908077924   0.375000000000000   1.0000000
B2   B   0.611909407915230   0.572309017853371   0.375000000000000   1.0000000
B2   B   0.444841831292938   0.051195742348832   0.375000000000000   1.0000000
B2   B   0.942463302690893   0.554864543703528   0.375000000000000   1.0000000
B2   B   0.781518093573108   0.057425713453222   0.375000000000000   1.0000000
B2   B   0.111307772690882   0.722320553012107   0.875000000000000   1.0000000
B2   B   0.444628646090874   0.722242468744649   0.875000000000000   1.0000000
B2   B   0.278130840301660   0.222419089277329   0.875000000000000   1.0000000
B2   B   0.777877567443924   0.722148226747066   0.875000000000000   1.0000000
B2   B   0.611233288610677   0.222429998477782   0.875000000000000   1.0000000
B2   B   0.944672532193038   0.222362062296837   0.875000000000000   1.0000000
B2   B   0.276703140982920   0.722777015741841   0.375000000000000   1.0000000
B2   B   0.116957633001845   0.225145483167586   0.375000000000000   1.0000000
B2   B   0.443778173206876   0.213057922583317   0.375000000000000   1.0000000
B2   B   0.613372121640353   0.732193177138329   0.375000000000000   1.0000000
B2   B   0.942463302690893   0.720932092320700   0.375000000000000   1.0000000
B2   B   0.781086970466549   0.222034071343785   0.375000000000000   1.0000000
B2   B   0.111330685355628   0.888989856901500   0.875000000000000   1.0000000
B2   B   0.444626043432967   0.888979688383147   0.875000000000000   1.0000000
B2   B   0.278130840301660   0.389045084357659   0.875000000000000   1.0000000
B2   B   0.611213295185131   0.389067237597224   0.875000000000000   1.0000000
B2   B   0.777921832554971   0.888868123884779   0.875000000000000   1.0000000
B2   B   0.944626277480429   0.389038521514306   0.875000000000000   1.0000000
B2   B   0.113039802968994   0.390689228224399   0.375000000000000   1.0000000
B2   B   0.276703140982920   0.887259458574408   0.375000000000000   1.0000000
B2   B   0.613603022527180   0.892904961981410   0.375000000000000   1.0000000
B2   B   0.945872671819374   0.889993741287098   0.375000000000000   1.0000000
B2   B   0.779011216082196   0.387358058030099   0.375000000000000   1.0000000
B2   B   0.278044071070082   0.555655570879183   0.875000000000000   1.0000000
B2   B   0.111390317092393   0.055690119688837   0.875000000000000   1.0000000
B2   B   0.611213295185131   0.555479390921233   0.875000000000000   1.0000000
B2   B   0.444628646090874   0.055719510679561   0.875000000000000   1.0000000
B2   B   0.944602856138814   0.555673881089924   0.875000000000000   1.0000000
B2   B   0.110070503906187   0.556033104383105   0.375000000000000   1.0000000
B2   B   0.777950876246380   0.055642104789857   0.875000000000000   1.0000000
B2   B   0.277258679564611   0.052523143608749   0.375000000000000   1.0000000
B2   B   0.443778173206876   0.564053583956898   0.375000000000000   1.0000000
B2   B   0.773086116031592   0.553209724682466   0.375000000000000   1.0000000
B2   B   0.613603022527180   0.054031393879098   0.375000000000000   1.0000000
B2   B   0.444684617312619   0.555581026442678   0.875000000000000   1.0000000
B2   B   0.948574553707826   0.058044831170262   0.375000000000000   1.0000000
B2   B   0.277990175742039   0.722311298045235   0.875000000000000   1.0000000
B2   B   0.111430202109151   0.222381767721239   0.875000000000000   1.0000000
B2   B   0.444684617312619   0.222436924203276   0.875000000000000   1.0000000
B2   B   0.611233288610677   0.722136623466227   0.875000000000000   1.0000000
B2   B   0.944602856138814   0.722262308382225   0.875000000000000   1.0000000
B2   B   0.777921832554971   0.222387042003522   0.875000000000000   1.0000000
B2   B   0.109362904145179   0.721348118739255   0.375000000000000   1.0000000
B2   B   0.444841831292938   0.726979422277443   0.375000000000000   1.0000000
B2   B   0.282334642347496   0.221728600092312   0.375000000000000   1.0000000
B2   B   0.779011216082195   0.724986491385425   0.375000000000000   1.0000000
B2   B   0.613372121640353   0.214512277835350   0.375000000000000   1.0000000
B2   B   0.948574553707826   0.223863055870899   0.375000000000000   1.0000000
B2   B   0.111390317092393   0.389033530736884   0.875000000000000   1.0000000
B2   B   0.277990175742039   0.889012211030134   0.875000000000000   1.0000000
B2   B   0.611264180511733   0.888910842308676   0.875000000000000   1.0000000
B2   B   0.444770179077987   0.389051756205657   0.875000000000000   1.0000000
B2   B   0.944626277480429   0.888921089299451   0.875000000000000   1.0000000
B2   B   0.110070503906187   0.887370732856412   0.375000000000000   1.0000000
B2   B   0.777877567443924   0.389062674030184   0.875000000000000   1.0000000
B2   B   0.444837552041412   0.889085442687372   0.375000000000000   1.0000000
B2   B   0.282334642347496   0.393939375588512   0.375000000000000   1.0000000
B2   B   0.277258679564611   0.558068869289195   0.375000000000000   1.0000000
B2   B   0.611909407915231   0.372933723395189   0.375000000000000   1.0000000
B2   B   0.781086970466549   0.892386232456093   0.375000000000000   1.0000000
B2   B   0.945872671819374   0.389212263865607   0.375000000000000   1.0000000
B2   B   0.111330685355628   0.555674161787456   0.875000000000000   1.0000000
B2   B   0.278044071070082   0.055721833524236   0.875000000000000   1.0000000
B2   B   0.777874204904883   0.555603769119108   0.875000000000000   1.0000000
B2   B   0.611264180511733   0.055686671536387   0.875000000000000   1.0000000
B2   B   0.944672532193038   0.055643803229536   0.875000000000000   1.0000000
B2   B   0.055366064838842   0.111064421142510   0.125244638543025   1.0000000
B2   B   0.555585779547911   0.610754488442777   0.124874106339452   1.0000000
B2   B   0.388912683540647   0.111487305727180   0.125267392799011   1.0000000
B2   B   0.888268241876475   0.610800787604910   0.125149417979234   1.0000000
B2   B   0.722015634833717   0.111024510630880   0.125168186105770   1.0000000
B2   B   0.055221261040290   0.777649831826467   0.624844608352424   1.0000000
B2   B   0.388780961519204   0.777599617893005   0.624770888249018   1.0000000
B2   B   0.222096837130793   0.277715085232064   0.625131869925773   1.0000000
B2   B   0.721947304245310   0.777586019962672   0.625143392501613   1.0000000
B2   B   0.555585779547911   0.278164624438466   0.625125893660547   1.0000000
B2   B   0.888635544092735   0.277622935356645   0.624810956132880   1.0000000
B2   B   0.222030686709184   0.777682010021259   0.125152741814433   1.0000000
B2   B   0.055366064838842   0.277634977029667   0.125244638543025   1.0000000
B2   B   0.388751207765220   0.278033804341720   0.124967488900722   1.0000000
B2   B   0.555435388910067   0.777555049190787   0.125056540664525   1.0000000
B2   B   0.888489474611835   0.777600287962813   0.125013266209735   1.0000000
B2   B   0.721947304245310   0.277694617615972   0.124856607498387   1.0000000
B2   B   0.055326924059594   0.944416772571086   0.624762399797708   1.0000000
B2   B   0.388780961519204   0.944514676959535   0.624770888249018   1.0000000
B2   B   0.222109215884397   0.444201583267911   0.624928048234369   1.0000000
B2   B   0.555228708088835   0.444281020711082   0.616636593103046   1.0000000
B2   B   0.722015634833717   0.944324457536173   0.624831813894231   1.0000000
B2   B   0.888489474611835   0.444222519982358   0.624986733790265   1.0000000
B2   B   0.055326924059594   0.444243484821839   0.125237600202291   1.0000000
B2   B   0.222102374617181   0.944554313244246   0.125223250420892   1.0000000
B2   B   0.555403173924190   0.944368253628758   0.125218985114137   1.0000000
B2   B   0.388751207765220   0.444050736756835   0.124967488900722   1.0000000
B2   B   0.888635544092735   0.944345942069425   0.125189043867121   1.0000000
B2   B   0.721506158367483   0.444059047947658   0.124599255602254   1.0000000
B2   B   0.222102374617181   0.610881394706269   0.624776749579110   1.0000000
B2   B   0.055366064838842   0.111064421142510   0.624755361456976   1.0000000
B2   B   0.555585779547911   0.610754488442777   0.625125893660547   1.0000000
B2   B   0.388912683540647   0.111487305727180   0.624732607200987   1.0000000
B2   B   0.888268241876475   0.610800787604910   0.624850582020767   1.0000000
B2   B   0.055221261040290   0.610904762547159   0.125155391647575   1.0000000
B2   B   0.722015634833717   0.111024510630880   0.624831813894231   1.0000000
B2   B   0.222109215884397   0.111240965949822   0.125071951765631   1.0000000
B2   B   0.388912683540647   0.610758711146810   0.125267392799011   1.0000000
B2   B   0.721506158367483   0.610780443753159   0.124599255602254   1.0000000
B2   B   0.555435388910067   0.111213673052614   0.125056540664525   1.0000000
B2   B   0.388912683540647   0.610758711146810   0.624732607200987   1.0000000
B2   B   0.888667269912283   0.111000301622814   0.125157188426747   1.0000000
B2   B   0.222030686709184   0.777682010021259   0.624847258185566   1.0000000
B2   B   0.055366064838842   0.277634977029667   0.624755361456976   1.0000000
B2   B   0.388751207765220   0.278033804341720   0.625032511099277   1.0000000
B2   B   0.555435388910067   0.777555049190787   0.624943459335474   1.0000000
B2   B   0.888489474611835   0.777600287962813   0.624986733790265   1.0000000
B2   B   0.721947304245310   0.277694617615972   0.625143392501613   1.0000000
B2   B   0.055221261040290   0.777649831826467   0.125155391647575   1.0000000
B2   B   0.388780961519204   0.777599617893005   0.125229111750982   1.0000000
B2   B   0.222096837130793   0.277715085232064   0.124868130074225   1.0000000
B2   B   0.721947304245310   0.777586019962672   0.124856607498387   1.0000000
B2   B   0.555585779547911   0.278164624438466   0.124874106339452   1.0000000
B2   B   0.888635544092735   0.277622935356645   0.125189043867121   1.0000000
B2   B   0.055326924059594   0.444243484821839   0.624762399797708   1.0000000
B2   B   0.222102374617181   0.944554313244246   0.624776749579110   1.0000000
B2   B   0.555403173924190   0.944368253628758   0.624781014885864   1.0000000
B2   B   0.388751207765220   0.444050736756835   0.625032511099277   1.0000000
B2   B   0.888635544092735   0.944345942069425   0.624810956132880   1.0000000
B2   B   0.055326924059594   0.944416772571086   0.125237600202291   1.0000000
B2   B   0.721506158367483   0.444059047947658   0.625400744397746   1.0000000
B2   B   0.388780961519204   0.944514676959535   0.125229111750982   1.0000000
B2   B   0.222109215884397   0.444201583267911   0.125071951765631   1.0000000
B2   B   0.222102374617181   0.610881394706269   0.125223250420892   1.0000000
B2   B   0.555228708088835   0.444281020711082   0.133363406896953   1.0000000
B2   B   0.722015634833717   0.944324457536173   0.125168186105770   1.0000000
B2   B   0.888489474611835   0.444222519982358   0.125013266209735   1.0000000
B2   B   0.055221261040290   0.610904762547159   0.624844608352424   1.0000000
B2   B   0.222109215884397   0.111240965949822   0.624928048234369   1.0000000
B2   B   0.721506158367483   0.610780443753159   0.625400744397746   1.0000000
B2   B   0.555435388910067   0.111213673052614   0.624943459335474   1.0000000
B2   B   0.888667269912283   0.111000301622814   0.624842811573253   1.0000000


