data_1
_audit_creation_method   'vasp2cif'
_cell_length_a    14.93631414619966
_cell_length_b    14.936314146199727
_cell_length_c    13.341276283792837
_cell_angle_alpha    90.0
_cell_angle_beta    90.0
_cell_angle_gamma    119.99999999999984

_symmetry_space_group_name_H-M    'P 1'
loop_
_atom_site_label
_atom_site_type_symbol
_atom_site_fract_x
_atom_site_fract_y
_atom_site_fract_z
_atom_site_occupancy
In2   In   0.486635349516747   0.409984341425037   0.375000000000000   1.0000000
N2   N   0.111194233360980   0.055584292513254   0.124909469718128   1.0000000
N2   N   0.611193457898613   0.555629053037094   0.126401626436322   1.0000000
N2   N   0.444501064538008   0.055546086871718   0.124937903008544   1.0000000
N2   N   0.944511038265855   0.555591543105234   0.125219937129626   1.0000000
N2   N   0.777844029323885   0.055588681328610   0.125083292489059   1.0000000
N2   N   0.111169743338283   0.722251538335804   0.624839680029795   1.0000000
N2   N   0.444501064538008   0.722288310999625   0.625062096991454   1.0000000
N2   N   0.277877317679327   0.222254551756720   0.624458192018434   1.0000000
N2   N   0.777850085293014   0.722261486767139   0.624693802622313   1.0000000
N2   N   0.611164623311506   0.222215504609771   0.624855889738582   1.0000000
N2   N   0.944528971958699   0.222268064779619   0.624948342276650   1.0000000
N2   N   0.277832171170263   0.722262510540738   0.125084747101664   1.0000000
N2   N   0.111220646329449   0.222276989831388   0.125000038168018   1.0000000
N2   N   0.444534340184523   0.222219905274553   0.125730472593399   1.0000000
N2   N   0.611164623311506   0.722282452035063   0.125144110261418   1.0000000
N2   N   0.944511038265855   0.722252828493956   0.125219937129626   1.0000000
N2   N   0.777840427833930   0.222253584728415   0.125075061525964   1.0000000
N2   N   0.111175575775815   0.888909761038564   0.624929069939898   1.0000000
N2   N   0.444497074332741   0.888915203833030   0.624967362341074   1.0000000
N2   N   0.277877317679327   0.388956099255937   0.624458192018434   1.0000000
N2   N   0.611193457898613   0.388897738194851   0.623598373563678   1.0000000
N2   N   0.777840427833930   0.888920176438845   0.624924938474037   1.0000000
N2   N   0.944521077040636   0.388930576602373   0.624925925324380   1.0000000
N2   N   0.111194233360980   0.388943274181053   0.124909469718128   1.0000000
N2   N   0.277832171170263   0.888902993962856   0.125084747101664   1.0000000
N2   N   0.611165852976801   0.888932540163528   0.124994697712549   1.0000000
N2   N   0.444656407712288   0.388994870522809   0.130090455930360   1.0000000
N2   N   0.944521077040636   0.888923833771593   0.125074074675620   1.0000000
N2   N   0.777850085293014   0.388921931859209   0.125306197377685   1.0000000
N2   N   0.277846488452096   0.555618761662167   0.624974831149350   1.0000000
N2   N   0.111194233360980   0.055584292513254   0.625090530281870   1.0000000
N2   N   0.611193457898613   0.555629053037094   0.623598373563678   1.0000000
N2   N   0.444501064538008   0.055546086871718   0.625062096991454   1.0000000
N2   N   0.944511038265855   0.555591543105234   0.624780062870374   1.0000000
N2   N   0.111175575775815   0.555599148070580   0.125070930060104   1.0000000
N2   N   0.777844029323885   0.055588681328610   0.624916707510939   1.0000000
N2   N   0.277846488452096   0.055561060123264   0.125025168850648   1.0000000
N2   N   0.444534340184523   0.555647768243309   0.125730472593399   1.0000000
N2   N   0.777838632357629   0.555585982845483   0.125650991254886   1.0000000
N2   N   0.611165852976801   0.055566646146598   0.124994697712549   1.0000000
N2   N   0.444534340184523   0.555647768243309   0.624269527406600   1.0000000
N2   N   0.944528971958699   0.055594240512416   0.125051657723347   1.0000000
N2   N   0.277832171170263   0.722262510540738   0.624915252898337   1.0000000
N2   N   0.111220646329449   0.222276989831388   0.624999961831982   1.0000000
N2   N   0.444534340184523   0.222219905274553   0.624269527406600   1.0000000
N2   N   0.611164623311506   0.722282452035063   0.624855889738582   1.0000000
N2   N   0.944511038265855   0.722252828493956   0.624780062870374   1.0000000
N2   N   0.777840427833930   0.222253584728415   0.624924938474037   1.0000000
N2   N   0.111169743338283   0.722251538335804   0.125160319970206   1.0000000
N2   N   0.444501064538008   0.722288310999625   0.124937903008544   1.0000000
N2   N   0.277877317679327   0.222254551756720   0.125541807981565   1.0000000
N2   N   0.777850085293014   0.722261486767139   0.125306197377685   1.0000000
N2   N   0.611164623311506   0.222215504609771   0.125144110261418   1.0000000
N2   N   0.944528971958699   0.222268064779619   0.125051657723347   1.0000000
N2   N   0.111194233360980   0.388943274181053   0.625090530281870   1.0000000
N2   N   0.277832171170263   0.888902993962856   0.624915252898337   1.0000000
N2   N   0.611165852976801   0.888932540163528   0.625005302287453   1.0000000
N2   N   0.444656407712288   0.388994870522809   0.619909544069641   1.0000000
N2   N   0.944521077040636   0.888923833771593   0.624925925324380   1.0000000
N2   N   0.111175575775815   0.888909761038564   0.125070930060104   1.0000000
N2   N   0.777850085293014   0.388921931859209   0.624693802622313   1.0000000
N2   N   0.444497074332741   0.888915203833030   0.125032637658926   1.0000000
N2   N   0.277877317679327   0.388956099255937   0.125541807981565   1.0000000
N2   N   0.277846488452096   0.555618761662167   0.125025168850648   1.0000000
N2   N   0.611193457898613   0.388897738194851   0.126401626436322   1.0000000
N2   N   0.777840427833930   0.888920176438845   0.125075061525964   1.0000000
N2   N   0.944521077040636   0.388930576602373   0.125074074675620   1.0000000
N2   N   0.111175575775815   0.555599148070580   0.624929069939898   1.0000000
N2   N   0.277846488452096   0.055561060123264   0.624974831149350   1.0000000
N2   N   0.777838632357629   0.555585982845483   0.624349008745112   1.0000000
N2   N   0.611165852976801   0.055566646146598   0.625005302287453   1.0000000
N2   N   0.944528971958699   0.055594240512416   0.624948342276650   1.0000000
N2   N   0.055797447394182   0.111280754000978   0.375000000000000   1.0000000
N2   N   0.554518044021005   0.615837364584180   0.375000000000000   1.0000000
N2   N   0.386469257346298   0.103425805039534   0.375000000000000   1.0000000
N2   N   0.887109135995713   0.610221234664526   0.375000000000000   1.0000000
N2   N   0.722528378963152   0.110634632868162   0.375000000000000   1.0000000
N2   N   0.055554422417116   0.777780907771424   0.875000000000000   1.0000000
N2   N   0.388901902555598   0.777780284676529   0.875000000000000   1.0000000
N2   N   0.222227394093208   0.277780363713272   0.875000000000000   1.0000000
N2   N   0.722232462541029   0.777784439232261   0.875000000000000   1.0000000
N2   N   0.555567533793209   0.277789534716267   0.875000000000000   1.0000000
N2   N   0.888897427383931   0.277779385979188   0.875000000000000   1.0000000
N2   N   0.219855587970167   0.776594460651752   0.375000000000000   1.0000000
N2   N   0.055797447394182   0.277850026726542   0.375000000000000   1.0000000
N2   N   0.383867004087124   0.262213186410147   0.375000000000000   1.0000000
N2   N   0.555051232364505   0.780187733855457   0.375000000000000   1.0000000
N2   N   0.888389509450167   0.778040145599773   0.375000000000000   1.0000000
N2   N   0.722439502360288   0.276322765791170   0.375000000000000   1.0000000
N2   N   0.055558459337624   0.944450262367573   0.875000000000000   1.0000000
N2   N   0.388901902555598   0.944454951212408   0.875000000000000   1.0000000
N2   N   0.222228391192048   0.444439598977688   0.875000000000000   1.0000000
N2   N   0.555553596139050   0.444443464736189   0.875000000000000   1.0000000
N2   N   0.722232104532771   0.944450373328236   0.875000000000000   1.0000000
N2   N   0.888893480393665   0.444442222569311   0.875000000000000   1.0000000
N2   N   0.054113671693620   0.444259912915337   0.375000000000000   1.0000000
N2   N   0.219695584218276   0.941568446089881   0.375000000000000   1.0000000
N2   N   0.555102309102331   0.944217821217827   0.375000000000000   1.0000000
N2   N   0.383867004087124   0.454987151010313   0.375000000000000   1.0000000
N2   N   0.889066082640331   0.945079160340694   0.375000000000000   1.0000000
N2   N   0.722825065955328   0.443634116926822   0.375000000000000   1.0000000
N2   N   0.222229221327928   0.611106725651338   0.875000000000000   1.0000000
N2   N   0.055558869139326   0.111114091120442   0.875000000000000   1.0000000
N2   N   0.555567533793209   0.611111332410278   0.875000000000000   1.0000000
N2   N   0.388904589864654   0.111131392826065   0.875000000000000   1.0000000
N2   N   0.888886425960208   0.611109879646775   0.875000000000000   1.0000000
N2   N   0.053373022662341   0.610337108117939   0.375000000000000   1.0000000
N2   N   0.722232104532771   0.111115064537872   0.875000000000000   1.0000000
N2   N   0.219631818721434   0.107506988298165   0.375000000000000   1.0000000
N2   N   0.386469257346298   0.616376785640108   0.375000000000000   1.0000000
N2   N   0.722825065955328   0.612524282361845   0.375000000000000   1.0000000
N2   N   0.555051232364505   0.108196831842386   0.375000000000000   1.0000000
N2   N   0.388904589864654   0.611106530371932   0.875000000000000   1.0000000
N2   N   0.889331248756290   0.111332291044816   0.375000000000000   1.0000000
N2   N   0.222226365284006   0.777779849308671   0.875000000000000   1.0000000
N2   N   0.055558869139326   0.277778111352221   0.875000000000000   1.0000000
N2   N   0.388904462593780   0.277799798582524   0.875000000000000   1.0000000
N2   N   0.555568811711776   0.777782230132155   0.875000000000000   1.0000000
N2   N   0.888893480393665   0.777784591157686   0.875000000000000   1.0000000
N2   N   0.722232462541029   0.277781356642104   0.875000000000000   1.0000000
N2   N   0.053373022662341   0.776369247877733   0.375000000000000   1.0000000
N2   N   0.387143384758447   0.778771024352955   0.375000000000000   1.0000000
N2   N   0.223398047284883   0.278365690309110   0.375000000000000   1.0000000
N2   N   0.722439502360288   0.779450069902453   0.375000000000000   1.0000000
N2   N   0.554518044021005   0.272014012770160   0.375000000000000   1.0000000
N2   N   0.889066082640331   0.277320255632970   0.375000000000000   1.0000000
N2   N   0.055558459337624   0.444441530303380   0.875000000000000   1.0000000
N2   N   0.222229221327928   0.944455829009927   0.875000000000000   1.0000000
N2   N   0.555566584872536   0.944449959102930   0.875000000000000   1.0000000
N2   N   0.388904462593780   0.444437997344594   0.875000000000000   1.0000000
N2   N   0.888897427383931   0.944451374738076   0.875000000000000   1.0000000
N2   N   0.054113671693619   0.943187092111610   0.375000000000000   1.0000000
N2   N   0.722223578470413   0.444444177116726   0.875000000000000   1.0000000
N2   N   0.387143384758447   0.941705693738828   0.375000000000000   1.0000000
N2   N   0.219631818721434   0.445458163756605   0.375000000000000   1.0000000
N2   N   0.219695584218276   0.611460471461730   0.375000000000000   1.0000000
N2   N   0.722528378963152   0.945227079428328   0.375000000000000   1.0000000
N2   N   0.888389509450167   0.443682697183730   0.375000000000000   1.0000000
N2   N   0.055554422417116   0.611106847979024   0.875000000000000   1.0000000
N2   N   0.222228391192048   0.111122125547697   0.875000000000000   1.0000000
N2   N   0.722223578470412   0.611112734687021   0.875000000000000   1.0000000
N2   N   0.555568811711776   0.111119914912957   0.875000000000000   1.0000000
N2   N   0.888896618851859   0.111114976092600   0.875000000000000   1.0000000
B2   B   0.109548970416121   0.054010120948582   0.375000000000000   1.0000000
B2   B   0.617575032795474   0.571947402892804   0.375000000000000   1.0000000
B2   B   0.443457244305993   0.051014510305441   0.375000000000000   1.0000000
B2   B   0.943249234199543   0.554711395280247   0.375000000000000   1.0000000
B2   B   0.778620122377255   0.055976727855296   0.375000000000000   1.0000000
B2   B   0.111129820716248   0.722231577024790   0.875000000000000   1.0000000
B2   B   0.444441318767593   0.722241327874310   0.875000000000000   1.0000000
B2   B   0.277709162295231   0.222186845201659   0.875000000000000   1.0000000
B2   B   0.777831189678166   0.722298732704860   0.875000000000000   1.0000000
B2   B   0.611134482483233   0.222179866480702   0.875000000000000   1.0000000
B2   B   0.944460771715682   0.222214520909366   0.875000000000000   1.0000000
B2   B   0.275832312399935   0.722141549133313   0.375000000000000   1.0000000
B2   B   0.112111320628063   0.222722326980696   0.375000000000000   1.0000000
B2   B   0.440233690538007   0.211572153684042   0.375000000000000   1.0000000
B2   B   0.611952935147325   0.727640820382141   0.375000000000000   1.0000000
B2   B   0.943249234199543   0.721871172252631   0.375000000000000   1.0000000
B2   B   0.778615901455801   0.221118823768157   0.375000000000000   1.0000000
B2   B   0.111122156455876   0.888909616590466   0.875000000000000   1.0000000
B2   B   0.444450592793959   0.888891963063645   0.875000000000000   1.0000000
B2   B   0.277709162295231   0.388855650426902   0.875000000000000   1.0000000
B2   B   0.611133995977417   0.388854581747441   0.875000000000000   1.0000000
B2   B   0.777818117769308   0.888950854517641   0.875000000000000   1.0000000
B2   B   0.944478172908190   0.388871123627146   0.875000000000000   1.0000000
B2   B   0.109548970416121   0.388872182800868   0.375000000000000   1.0000000
B2   B   0.275832312399935   0.887024096599949   0.375000000000000   1.0000000
B2   B   0.611596319144738   0.890598762674770   0.375000000000000   1.0000000
B2   B   0.944036303754704   0.889293892368507   0.375000000000000   1.0000000
B2   B   0.779043579718568   0.386897567369525   0.375000000000000   1.0000000
B2   B   0.277752598095236   0.555543720064122   0.875000000000000   1.0000000
B2   B   0.111097654336103   0.055561189246147   0.875000000000000   1.0000000
B2   B   0.611133995977417   0.555612747563305   0.875000000000000   1.0000000
B2   B   0.444441318767593   0.055533324226615   0.875000000000000   1.0000000
B2   B   0.944490327705452   0.555558856734405   0.875000000000000   1.0000000
B2   B   0.109088138070253   0.555141815438433   0.375000000000000   1.0000000
B2   B   0.777809434421789   0.055571383877562   0.875000000000000   1.0000000
B2   B   0.275073936516432   0.051788421744090   0.375000000000000   1.0000000
B2   B   0.440233690538007   0.561994870187301   0.375000000000000   1.0000000
B2   B   0.777939656486435   0.555636494909887   0.375000000000000   1.0000000
B2   B   0.611596319144738   0.054330889803296   0.375000000000000   1.0000000
B2   B   0.444411534651569   0.555567653267558   0.875000000000000   1.0000000
B2   B   0.945109645654329   0.056288918960577   0.375000000000000   1.0000000
B2   B   0.277777428055852   0.722222318478996   0.875000000000000   1.0000000
B2   B   0.111081265993244   0.222207299663286   0.875000000000000   1.0000000
B2   B   0.444411534651569   0.222177214717348   0.875000000000000   1.0000000
B2   B   0.611134482483233   0.722287949335856   0.875000000000000   1.0000000
B2   B   0.944490327705452   0.722264804304383   0.875000000000000   1.0000000
B2   B   0.777818117769308   0.222200596584994   0.875000000000000   1.0000000
B2   B   0.109117840663217   0.721225586998275   0.375000000000000   1.0000000
B2   B   0.443457244305993   0.725776067333888   0.375000000000000   1.0000000
B2   B   0.275794144619073   0.218581948373185   0.375000000000000   1.0000000
B2   B   0.779043579718568   0.725479345682374   0.375000000000000   1.0000000
B2   B   0.611952935147325   0.217645448098511   0.375000000000000   1.0000000
B2   B   0.945109645654329   0.222154060027092   0.375000000000000   1.0000000
B2   B   0.111097654336103   0.388869798423283   0.875000000000000   1.0000000
B2   B   0.277777428055852   0.888888442910186   0.875000000000000   1.0000000
B2   B   0.611133405605984   0.888922200274702   0.875000000000000   1.0000000
B2   B   0.444370317789811   0.388851825561571   0.875000000000000   1.0000000
B2   B   0.944478172908190   0.888940382614373   0.875000000000000   1.0000000
B2   B   0.109088138070253   0.887279655965148   0.375000000000000   1.0000000
B2   B   0.777831189678166   0.388865790306631   0.875000000000000   1.0000000
B2   B   0.443748298573713   0.888540815953521   0.375000000000000   1.0000000
B2   B   0.275794144619073   0.390545529579219   0.375000000000000   1.0000000
B2   B   0.275073936516432   0.556618848105679   0.375000000000000   1.0000000
B2   B   0.617575032795474   0.378960963236000   0.375000000000000   1.0000000
B2   B   0.778615901455801   0.890830411020972   0.375000000000000   1.0000000
B2   B   0.944036303754704   0.388075744719529   0.375000000000000   1.0000000
B2   B   0.111122156455876   0.555545873198740   0.875000000000000   1.0000000
B2   B   0.277752598095236   0.055542211364450   0.875000000000000   1.0000000
B2   B   0.777833865570391   0.555583599451863   0.875000000000000   1.0000000
B2   B   0.611133405605984   0.055544538664614   0.875000000000000   1.0000000
B2   B   0.944460771715682   0.055579584139652   0.875000000000000   1.0000000
B2   B   0.055653307108007   0.111162240610503   0.124880956813834   1.0000000
B2   B   0.555504877271448   0.611364382348702   0.125081728068167   1.0000000
B2   B   0.388809375707889   0.110883122230726   0.124921402007713   1.0000000
B2   B   0.889192583896446   0.611262958614896   0.124931024393345   1.0000000
B2   B   0.722288370955658   0.111086968642665   0.124850546914997   1.0000000
B2   B   0.055740985228249   0.777876156342375   0.625061213906155   1.0000000
B2   B   0.388883550063885   0.777842458039422   0.625168422375162   1.0000000
B2   B   0.222218822353185   0.277776077843259   0.624650446942255   1.0000000
B2   B   0.722340740750222   0.777976405913476   0.625222458233820   1.0000000
B2   B   0.555504877271448   0.277473828256081   0.624918271931835   1.0000000
B2   B   0.889028066904194   0.277795785780899   0.625119477464431   1.0000000
B2   B   0.222298506597282   0.777815919965311   0.124960109910791   1.0000000
B2   B   0.055653307108007   0.277824399830839   0.124880956813834   1.0000000
B2   B   0.388639688929619   0.277355656852095   0.126908963068725   1.0000000
B2   B   0.555541410696788   0.777929724780440   0.124722200592956   1.0000000
B2   B   0.889127600862638   0.777960277361097   0.124867783289524   1.0000000
B2   B   0.722340740750222   0.277697668170081   0.124777541766181   1.0000000
B2   B   0.055689485766295   0.944521629421037   0.625149938778937   1.0000000
B2   B   0.388883550063885   0.944374425357797   0.625168422375162   1.0000000
B2   B   0.222227068228499   0.444515458650057   0.625021607140358   1.0000000
B2   B   0.555801262690721   0.444567298012025   0.624004585171887   1.0000000
B2   B   0.722288370955658   0.944534735646330   0.625149453085003   1.0000000
B2   B   0.889127600862638   0.444500656834880   0.625132216710478   1.0000000
B2   B   0.055689485766295   0.444501189678590   0.124850061221063   1.0000000
B2   B   0.222273422360856   0.944421004705080   0.124895088982006   1.0000000
B2   B   0.555564896880133   0.944449115106732   0.124814817020669   1.0000000
B2   B   0.388639688929619   0.444617365410860   0.126908963068725   1.0000000
B2   B   0.889028066904194   0.944565614456632   0.124880522535571   1.0000000
B2   B   0.722544587765139   0.444514923495980   0.125020536449050   1.0000000
B2   B   0.222273422360856   0.611185750989114   0.625104911017994   1.0000000
B2   B   0.055653307108007   0.111162240610503   0.625119043186161   1.0000000
B2   B   0.555504877271448   0.611364382348702   0.624918271931835   1.0000000
B2   B   0.388809375707889   0.110883122230726   0.625078597992285   1.0000000
B2   B   0.889192583896446   0.611262958614896   0.625068975606655   1.0000000
B2   B   0.055740985228249   0.611198162219210   0.124938786093842   1.0000000
B2   B   0.722288370955658   0.111086968642665   0.625149453085003   1.0000000
B2   B   0.222227068228499   0.111044942911777   0.124978392859642   1.0000000
B2   B   0.388809375707889   0.611259586810507   0.124921402007713   1.0000000
B2   B   0.722544587765139   0.611362997602495   0.125020536449050   1.0000000
B2   B   0.555541410696788   0.110945019249686   0.124722200592956   1.0000000
B2   B   0.388809375707889   0.611259586810507   0.625078597992285   1.0000000
B2   B   0.888996058682144   0.111164696007743   0.124932290024153   1.0000000
B2   B   0.222298506597282   0.777815919965311   0.625039890089211   1.0000000
B2   B   0.055653307108007   0.277824399830839   0.625119043186161   1.0000000
B2   B   0.388639688929619   0.277355656852095   0.623091036931274   1.0000000
B2   B   0.555541410696788   0.777929724780440   0.625277799407047   1.0000000
B2   B   0.889127600862638   0.777960277361097   0.625132216710478   1.0000000
B2   B   0.722340740750222   0.277697668170081   0.625222458233820   1.0000000
B2   B   0.055740985228249   0.777876156342375   0.124938786093842   1.0000000
B2   B   0.388883550063885   0.777842458039422   0.124831577624835   1.0000000
B2   B   0.222218822353185   0.277776077843259   0.125349553057745   1.0000000
B2   B   0.722340740750222   0.777976405913476   0.124777541766181   1.0000000
B2   B   0.555504877271448   0.277473828256081   0.125081728068167   1.0000000
B2   B   0.889028066904194   0.277795785780899   0.124880522535571   1.0000000
B2   B   0.055689485766295   0.444501189678590   0.625149938778937   1.0000000
B2   B   0.222273422360856   0.944421004705080   0.625104911017994   1.0000000
B2   B   0.555564896880133   0.944449115106732   0.625185182979331   1.0000000
B2   B   0.388639688929619   0.444617365410860   0.623091036931274   1.0000000
B2   B   0.889028066904194   0.944565614456632   0.625119477464431   1.0000000
B2   B   0.055689485766295   0.944521629421037   0.124850061221063   1.0000000
B2   B   0.722544587765139   0.444514923495980   0.624979463550950   1.0000000
B2   B   0.388883550063885   0.944374425357797   0.124831577624835   1.0000000
B2   B   0.222227068228499   0.444515458650057   0.124978392859642   1.0000000
B2   B   0.222273422360856   0.611185750989114   0.124895088982006   1.0000000
B2   B   0.555801262690721   0.444567298012025   0.125995414828110   1.0000000
B2   B   0.722288370955658   0.944534735646330   0.124850546914997   1.0000000
B2   B   0.889127600862638   0.444500656834880   0.124867783289524   1.0000000
B2   B   0.055740985228249   0.611198162219210   0.625061213906155   1.0000000
B2   B   0.222227068228499   0.111044942911777   0.625021607140358   1.0000000
B2   B   0.722544587765139   0.611362997602495   0.624979463550950   1.0000000
B2   B   0.555541410696788   0.110945019249686   0.625277799407047   1.0000000
B2   B   0.888996058682144   0.111164696007743   0.625067709975847   1.0000000


