data_1
_audit_creation_method   'vasp2cif'
_cell_length_a    14.93631414619966
_cell_length_b    14.936314146199727
_cell_length_c    13.341276283792837
_cell_angle_alpha    90.0
_cell_angle_beta    90.0
_cell_angle_gamma    119.99999999999984

_symmetry_space_group_name_H-M    'P 1'
loop_
_atom_site_label
_atom_site_type_symbol
_atom_site_fract_x
_atom_site_fract_y
_atom_site_fract_z
_atom_site_occupancy
C2   C   0.391455855317486   0.437742726945412   0.375000000000000   1.0000000
C2   C   0.442444638212107   0.379429803046951   0.375000000000000   1.0000000
C2   C   0.548376285036312   0.415434219069765   0.375000000000000   1.0000000
N2   N   0.111034943744992   0.055584562132508   0.124862037867661   1.0000000
N2   N   0.611097567107107   0.555574396329272   0.124676946613424   1.0000000
N2   N   0.444409582420082   0.055606538174100   0.125053538372370   1.0000000
N2   N   0.944417839673887   0.555574249956187   0.125014444013771   1.0000000
N2   N   0.777692332821596   0.055567449701558   0.124909844817561   1.0000000
N2   N   0.111083339401901   0.722247061042264   0.625119477522983   1.0000000
N2   N   0.444414097550842   0.722242382470045   0.625258795999198   1.0000000
N2   N   0.277700648898821   0.222245943243605   0.625127269832058   1.0000000
N2   N   0.777738038208158   0.722255650668619   0.625150422281809   1.0000000
N2   N   0.611086226930979   0.222273267176718   0.624650570073798   1.0000000
N2   N   0.944352527177155   0.222210892896279   0.625174654570519   1.0000000
N2   N   0.277751447582856   0.722237997441899   0.124855664465349   1.0000000
N2   N   0.110998910252128   0.222207949886971   0.124717221456342   1.0000000
N2   N   0.444409471545465   0.222270074238702   0.125098921150177   1.0000000
N2   N   0.611061447116880   0.722222424865279   0.124795933132022   1.0000000
N2   N   0.944414020390071   0.722263039329829   0.124920283314828   1.0000000
N2   N   0.777723636615144   0.222233342997132   0.125054587677578   1.0000000
N2   N   0.111072218609252   0.888935522449693   0.625133919228208   1.0000000
N2   N   0.444407618815192   0.888926437862171   0.625122182323845   1.0000000
N2   N   0.277650098729795   0.388847023217057   0.625801363351444   1.0000000
N2   N   0.611156879287474   0.388922802488802   0.625656479897251   1.0000000
N2   N   0.777706010428002   0.888907849964724   0.625105593409181   1.0000000
N2   N   0.944400724128687   0.388888973212831   0.625029659243152   1.0000000
N2   N   0.111034300601124   0.388868633984242   0.124749364854482   1.0000000
N2   N   0.277748838576242   0.888933037018100   0.124863492695593   1.0000000
N2   N   0.611050683846902   0.888913804871483   0.124881645675344   1.0000000
N2   N   0.444388136543038   0.388862882376489   0.124363258230988   1.0000000
N2   N   0.944387772691627   0.888928112531287   0.124859687753614   1.0000000
N2   N   0.777769791401479   0.388899230338206   0.125153096028613   1.0000000
N2   N   0.277739741780149   0.555548073732111   0.625261310090698   1.0000000
N2   N   0.111034943744992   0.055584562132508   0.625137962132336   1.0000000
N2   N   0.611097567107107   0.555574396329272   0.625323053386565   1.0000000
N2   N   0.444409582420082   0.055606538174100   0.624946461627632   1.0000000
N2   N   0.944417839673887   0.555574249956187   0.624985555986228   1.0000000
N2   N   0.111076923262329   0.555555982000619   0.124899918163045   1.0000000
N2   N   0.777692332821596   0.055567449701558   0.625090155182454   1.0000000
N2   N   0.277735121882812   0.055612678776423   0.124961223594273   1.0000000
N2   N   0.444429600710934   0.555600786118884   0.124251844605390   1.0000000
N2   N   0.777765003750385   0.555600986815172   0.125008499729445   1.0000000
N2   N   0.611053469019199   0.055596791307966   0.125052142706616   1.0000000
N2   N   0.444429600710934   0.555600786118884   0.625748155394603   1.0000000
N2   N   0.944349588611912   0.055563224753330   0.124843840906778   1.0000000
N2   N   0.277751447582856   0.722237997441899   0.625144335534655   1.0000000
N2   N   0.110998910252128   0.222207949886971   0.625282778543660   1.0000000
N2   N   0.444409471545465   0.222270074238702   0.624901078849818   1.0000000
N2   N   0.611061447116880   0.722222424865279   0.625204066867981   1.0000000
N2   N   0.944414020390071   0.722263039329829   0.625079716685176   1.0000000
N2   N   0.777723636615144   0.222233342997132   0.624945412322417   1.0000000
N2   N   0.111083339401901   0.722247061042264   0.124880522477012   1.0000000
N2   N   0.444414097550842   0.722242382470045   0.124741204000806   1.0000000
N2   N   0.277700648898821   0.222245943243605   0.124872730167936   1.0000000
N2   N   0.777738038208158   0.722255650668619   0.124849577718195   1.0000000
N2   N   0.611086226930979   0.222273267176718   0.125349429926204   1.0000000
N2   N   0.944352527177155   0.222210892896279   0.124825345429487   1.0000000
N2   N   0.111034300601124   0.388868633984242   0.625250635145522   1.0000000
N2   N   0.277748838576242   0.888933037018100   0.625136507304404   1.0000000
N2   N   0.611050683846902   0.888913804871483   0.625118354324657   1.0000000
N2   N   0.444388136543038   0.388862882376489   0.625636741769010   1.0000000
N2   N   0.944387772691627   0.888928112531287   0.625140312246391   1.0000000
N2   N   0.111072218609252   0.888935522449693   0.124866080771790   1.0000000
N2   N   0.777769791401479   0.388899230338206   0.624846903971387   1.0000000
N2   N   0.444407618815192   0.888926437862171   0.124877817676152   1.0000000
N2   N   0.277650098729795   0.388847023217057   0.124198636648561   1.0000000
N2   N   0.277739741780149   0.555548073732111   0.124738689909289   1.0000000
N2   N   0.611156879287474   0.388922802488802   0.124343520102743   1.0000000
N2   N   0.777706010428002   0.888907849964724   0.124894406590819   1.0000000
N2   N   0.944400724128687   0.388888973212831   0.124970340756847   1.0000000
N2   N   0.111076923262329   0.555555982000619   0.625100081836953   1.0000000
N2   N   0.277735121882812   0.055612678776423   0.625038776405723   1.0000000
N2   N   0.777765003750385   0.555600986815172   0.624991500270553   1.0000000
N2   N   0.611053469019199   0.055596791307966   0.624947857293386   1.0000000
N2   N   0.944349588611912   0.055563224753330   0.625156159093212   1.0000000
N2   N   0.051727034558169   0.108805894067488   0.375000000000000   1.0000000
N2   N   0.559014922585922   0.604469418894802   0.375000000000000   1.0000000
N2   N   0.388137931036571   0.113188220165075   0.375000000000000   1.0000000
N2   N   0.894398663149865   0.614309592077615   0.375000000000000   1.0000000
N2   N   0.720477911979358   0.113164074548636   0.375000000000000   1.0000000
N2   N   0.055549773224909   0.777776737200587   0.875000000000000   1.0000000
N2   N   0.388875586618857   0.777778362972671   0.875000000000000   1.0000000
N2   N   0.222213639816553   0.277771697465886   0.875000000000000   1.0000000
N2   N   0.722213923154283   0.777772764789390   0.875000000000000   1.0000000
N2   N   0.555543545753259   0.277771178450104   0.875000000000000   1.0000000
N2   N   0.888883806827308   0.277781989579138   0.875000000000000   1.0000000
N2   N   0.224911021088613   0.779301355208141   0.375000000000000   1.0000000
N2   N   0.052772370334516   0.276933562273378   0.375000000000000   1.0000000
N2   N   0.381098082658136   0.273279535831870   0.375000000000000   1.0000000
N2   N   0.556555676530734   0.776047059360334   0.375000000000000   1.0000000
N2   N   0.888988403029651   0.777120996822144   0.375000000000000   1.0000000
N2   N   0.720512247760314   0.281349572231572   0.375000000000000   1.0000000
N2   N   0.055546401399766   0.944438764907456   0.875000000000000   1.0000000
N2   N   0.388876524133055   0.944438748045793   0.875000000000000   1.0000000
N2   N   0.222212828141011   0.444449280900825   0.875000000000000   1.0000000
N2   N   0.555548467899980   0.444446389121988   0.875000000000000   1.0000000
N2   N   0.722210978627399   0.944438517604965   0.875000000000000   1.0000000
N2   N   0.888888422730573   0.444449791165450   0.875000000000000   1.0000000
N2   N   0.057255449805367   0.445072546237555   0.375000000000000   1.0000000
N2   N   0.222931885277206   0.945385441214585   0.375000000000000   1.0000000
N2   N   0.555933590495018   0.947607978374377   0.375000000000000   1.0000000
N2   N   0.886870374326935   0.943166823142223   0.375000000000000   1.0000000
N2   N   0.739411875399906   0.454081579870735   0.375000000000000   1.0000000
N2   N   0.222208501586146   0.611115388514020   0.875000000000000   1.0000000
N2   N   0.055546980524109   0.111103477002715   0.875000000000000   1.0000000
N2   N   0.555546866083627   0.611108023784238   0.875000000000000   1.0000000
N2   N   0.388876466008328   0.111099846885208   0.875000000000000   1.0000000
N2   N   0.888891605091871   0.611113909747848   0.875000000000000   1.0000000
N2   N   0.059369557972904   0.612877472058223   0.375000000000000   1.0000000
N2   N   0.722209990060482   0.111107238993067   0.875000000000000   1.0000000
N2   N   0.218702619202575   0.108905022234001   0.375000000000000   1.0000000
N2   N   0.391443851082580   0.610028721315232   0.375000000000000   1.0000000
N2   N   0.723463553330337   0.609293521051238   0.375000000000000   1.0000000
N2   N   0.555456851074534   0.120891608909341   0.375000000000000   1.0000000
N2   N   0.388873681506772   0.611111483072773   0.875000000000000   1.0000000
N2   N   0.886204279253349   0.110684101338611   0.375000000000000   1.0000000
N2   N   0.222210269635453   0.777776862437539   0.875000000000000   1.0000000
N2   N   0.055549019802213   0.277778328654086   0.875000000000000   1.0000000
N2   N   0.388877977158510   0.277770521825687   0.875000000000000   1.0000000
N2   N   0.555541951098305   0.777772368688397   0.875000000000000   1.0000000
N2   N   0.888886782788790   0.777778114638221   0.875000000000000   1.0000000
N2   N   0.722213386225931   0.277777942117847   0.875000000000000   1.0000000
N2   N   0.058121699108214   0.779283133177982   0.375000000000000   1.0000000
N2   N   0.390988994346626   0.778707114101832   0.375000000000000   1.0000000
N2   N   0.216027013867120   0.273699928352761   0.375000000000000   1.0000000
N2   N   0.722228400694494   0.776320445164529   0.375000000000000   1.0000000
N2   N   0.550901090685668   0.297062539723360   0.375000000000000   1.0000000
N2   N   0.887129193801393   0.278564221794584   0.375000000000000   1.0000000
N2   N   0.055549655848125   0.444451052990592   0.875000000000000   1.0000000
N2   N   0.222210523529815   0.944437059551358   0.875000000000000   1.0000000
N2   N   0.555540944108218   0.944440091880797   0.875000000000000   1.0000000
N2   N   0.388882427506518   0.444445140462230   0.875000000000000   1.0000000
N2   N   0.888883448691345   0.944440501561400   0.875000000000000   1.0000000
N2   N   0.054097119712386   0.943274076679860   0.375000000000000   1.0000000
N2   N   0.722223557526291   0.444450027280167   0.875000000000000   1.0000000
N2   N   0.390475966755328   0.947219752796866   0.375000000000000   1.0000000
N2   N   0.222324882150799   0.443144204363447   0.375000000000000   1.0000000
N2   N   0.225023190890042   0.611515323547267   0.375000000000000   1.0000000
N2   N   0.720947970959352   0.944357021534861   0.375000000000000   1.0000000
N2   N   0.893304008700866   0.446848190499695   0.375000000000000   1.0000000
N2   N   0.055549186099815   0.611112617911330   0.875000000000000   1.0000000
N2   N   0.222209003855364   0.111099636970932   0.875000000000000   1.0000000
N2   N   0.722220638517130   0.611111257810694   0.875000000000000   1.0000000
N2   N   0.555541706745608   0.111103486930139   0.875000000000000   1.0000000
N2   N   0.888881877439749   0.111106858739283   0.875000000000000   1.0000000
B2   B   0.108148380534240   0.053952131699022   0.375000000000000   1.0000000
B2   B   0.611802871213733   0.541276371692768   0.375000000000000   1.0000000
B2   B   0.444764110569191   0.059429807403066   0.375000000000000   1.0000000
B2   B   0.948654903468350   0.557778493478086   0.375000000000000   1.0000000
B2   B   0.775229319442437   0.055868339743516   0.375000000000000   1.0000000
B2   B   0.111101387360578   0.722211780791197   0.875000000000000   1.0000000
B2   B   0.444416536966504   0.722165623490477   0.875000000000000   1.0000000
B2   B   0.277822518102380   0.222274336106463   0.875000000000000   1.0000000
B2   B   0.777727216547684   0.722162682766126   0.875000000000000   1.0000000
B2   B   0.611074981544878   0.222258911478499   0.875000000000000   1.0000000
B2   B   0.944463931520733   0.222244965949778   0.875000000000000   1.0000000
B2   B   0.280107876941833   0.722780118620258   0.375000000000000   1.0000000
B2   B   0.106687868885643   0.219862157956641   0.375000000000000   1.0000000
B2   B   0.442090239509156   0.224952165785075   0.375000000000000   1.0000000
B2   B   0.611290645430452   0.716979899633942   0.375000000000000   1.0000000
B2   B   0.947361023962528   0.724306796655995   0.375000000000000   1.0000000
B2   B   0.775313399406028   0.224277781494620   0.375000000000000   1.0000000
B2   B   0.111108975498751   0.888889576677995   0.875000000000000   1.0000000
B2   B   0.444422048833610   0.888870607195074   0.875000000000000   1.0000000
B2   B   0.277839447592754   0.388921088256079   0.875000000000000   1.0000000
B2   B   0.611068014306822   0.388911125417579   0.875000000000000   1.0000000
B2   B   0.777747337953079   0.888845989766194   0.875000000000000   1.0000000
B2   B   0.944447663188011   0.388910386275156   0.875000000000000   1.0000000
B2   B   0.111930260326215   0.388655152414416   0.375000000000000   1.0000000
B2   B   0.279475593349605   0.890634726298800   0.375000000000000   1.0000000
B2   B   0.610043206272313   0.888548354705993   0.375000000000000   1.0000000
B2   B   0.943039107388180   0.887853569387285   0.375000000000000   1.0000000
B2   B   0.781952630608814   0.390651238613086   0.375000000000000   1.0000000
B2   B   0.277795957737785   0.555539989848204   0.875000000000000   1.0000000
B2   B   0.111134333085846   0.055577110548326   0.875000000000000   1.0000000
B2   B   0.611054767375076   0.555500378308184   0.875000000000000   1.0000000
B2   B   0.444432434593084   0.055577346156089   0.875000000000000   1.0000000
B2   B   0.944422045752468   0.555550458225970   0.875000000000000   1.0000000
B2   B   0.114164749127918   0.556390912833500   0.375000000000000   1.0000000
B2   B   0.777761846686179   0.055548429076035   0.875000000000000   1.0000000
B2   B   0.277078330075560   0.056468979877091   0.375000000000000   1.0000000
B2   B   0.447658383813063   0.552040177390095   0.375000000000000   1.0000000
B2   B   0.783276635255822   0.560400537658076   0.375000000000000   1.0000000
B2   B   0.609566917093831   0.061030921455993   0.375000000000000   1.0000000
B2   B   0.444427899919793   0.555505703006638   0.875000000000000   1.0000000
B2   B   0.941253056706763   0.054170153431702   0.375000000000000   1.0000000
B2   B   0.277773020025090   0.722203171860442   0.875000000000000   1.0000000
B2   B   0.111164705197460   0.222259973859143   0.875000000000000   1.0000000
B2   B   0.444449479709983   0.222274175543116   0.875000000000000   1.0000000
B2   B   0.611058773425695   0.722143553068286   0.875000000000000   1.0000000
B2   B   0.944415262481172   0.722197667094621   0.875000000000000   1.0000000
B2   B   0.777757126793718   0.222245118403564   0.875000000000000   1.0000000
B2   B   0.114063031223260   0.723835184114841   0.375000000000000   1.0000000
B2   B   0.445404534510719   0.720712674993946   0.375000000000000   1.0000000
B2   B   0.271452273167885   0.219561156648914   0.375000000000000   1.0000000
B2   B   0.777211212128727   0.720210939271734   0.375000000000000   1.0000000
B2   B   0.608959111400010   0.237915296152741   0.375000000000000   1.0000000
B2   B   0.941973905358944   0.222138180905229   0.375000000000000   1.0000000
B2   B   0.111156618595934   0.388914363325404   0.875000000000000   1.0000000
B2   B   0.277772748136634   0.888890215819944   0.875000000000000   1.0000000
B2   B   0.611073113018609   0.888844716381854   0.875000000000000   1.0000000
B2   B   0.444455814281713   0.388921830640914   0.875000000000000   1.0000000
B2   B   0.944431687212279   0.888870007588899   0.875000000000000   1.0000000
B2   B   0.111985958675783   0.889847230432194   0.375000000000000   1.0000000
B2   B   0.777736394639659   0.388910147106331   0.875000000000000   1.0000000
B2   B   0.445189490611219   0.890405102390564   0.375000000000000   1.0000000
B2   B   0.276884602981801   0.385112894728288   0.375000000000000   1.0000000
B2   B   0.280345527638943   0.554419397709462   0.375000000000000   1.0000000
B2   B   0.775944419714023   0.887526491426280   0.375000000000000   1.0000000
B2   B   0.946479270425896   0.389854787080487   0.375000000000000   1.0000000
B2   B   0.111121539393236   0.555557381058797   0.875000000000000   1.0000000
B2   B   0.277792178022312   0.055586998543706   0.875000000000000   1.0000000
B2   B   0.777723148954190   0.555526429851074   0.875000000000000   1.0000000
B2   B   0.611081045635900   0.055557502655983   0.875000000000000   1.0000000
B2   B   0.944456464222184   0.055559164979725   0.875000000000000   1.0000000
B2   B   0.055533822987396   0.111208610251358   0.124994597364416   1.0000000
B2   B   0.555393041671820   0.610889117877840   0.125159650405229   1.0000000
B2   B   0.388950315028704   0.111358559443349   0.125300370326436   1.0000000
B2   B   0.888701306229489   0.611042155845073   0.125193095729027   1.0000000
B2   B   0.722140152373765   0.111158213350162   0.125143968172579   1.0000000
B2   B   0.055496292484553   0.777792332362002   0.624979624241165   1.0000000
B2   B   0.388902976832171   0.777737854173557   0.624949109309822   1.0000000
B2   B   0.222296457984575   0.277964275556040   0.624978223830138   1.0000000
B2   B   0.722061846551416   0.777673072367565   0.624938367840478   1.0000000
B2   B   0.555584133281914   0.278074919378133   0.624284408585504   1.0000000
B2   B   0.888823880029399   0.277796189054103   0.624908831067400   1.0000000
B2   B   0.222232728741131   0.777789629754505   0.125016581535124   1.0000000
B2   B   0.055553562994717   0.277815626186104   0.124988612061232   1.0000000
B2   B   0.388991025997869   0.278065793335800   0.125279367379729   1.0000000
B2   B   0.555475393076691   0.777673188385868   0.125068106706320   1.0000000
B2   B   0.888746837095494   0.777742716756476   0.125040183865661   1.0000000
B2   B   0.722120528241929   0.277856251294358   0.125418752584570   1.0000000
B2   B   0.055515214676401   0.944523165254302   0.624992870302490   1.0000000
B2   B   0.388906935531362   0.944549332142440   0.624900226632238   1.0000000
B2   B   0.222313961985580   0.444385999814444   0.624970844921224   1.0000000
B2   B   0.555417831609552   0.444321513001128   0.623970492595545   1.0000000
B2   B   0.722118206807582   0.944423009803266   0.624953414378641   1.0000000
B2   B   0.888761041270410   0.444417201085739   0.624746485313514   1.0000000
B2   B   0.055552899728861   0.444414410291749   0.125078060377298   1.0000000
B2   B   0.222239490324310   0.944570429114061   0.125046489636592   1.0000000
B2   B   0.555509120513928   0.944474029073554   0.125111758073571   1.0000000
B2   B   0.388923056503897   0.444392822899259   0.126010003395172   1.0000000
B2   B   0.888793047317798   0.944452323503383   0.125007619874817   1.0000000
B2   B   0.721960911667393   0.444380611076915   0.125537838368856   1.0000000
B2   B   0.222272810448112   0.611034410517992   0.624904218986469   1.0000000
B2   B   0.055533822987396   0.111208610251358   0.625005402635589   1.0000000
B2   B   0.555393041671820   0.610889117877840   0.624840349594774   1.0000000
B2   B   0.388950315028704   0.111358559443349   0.624699629673565   1.0000000
B2   B   0.888701306229489   0.611042155845073   0.624806904270974   1.0000000
B2   B   0.055505518309101   0.611072107423690   0.125088642264467   1.0000000
B2   B   0.722140152373765   0.111158213350162   0.624856031827421   1.0000000
B2   B   0.222264466394064   0.111319184127155   0.125120738867730   1.0000000
B2   B   0.388941228031456   0.610955950826528   0.125081294076700   1.0000000
B2   B   0.721958082934205   0.610950636558645   0.125205892566853   1.0000000
B2   B   0.555536901285614   0.111275047224273   0.125421651191739   1.0000000
B2   B   0.388941228031456   0.610955950826528   0.624918705923299   1.0000000
B2   B   0.888817757653710   0.111140165130811   0.125001075928406   1.0000000
B2   B   0.222232728741131   0.777789629754505   0.624983418464875   1.0000000
B2   B   0.055553562994717   0.277815626186104   0.625011387938777   1.0000000
B2   B   0.388991025997869   0.278065793335800   0.624720632620266   1.0000000
B2   B   0.555475393076691   0.777673188385868   0.624931893293694   1.0000000
B2   B   0.888746837095494   0.777742716756476   0.624959816134345   1.0000000
B2   B   0.722120528241929   0.277856251294358   0.624581247415430   1.0000000
B2   B   0.055496292484553   0.777792332362002   0.125020375758841   1.0000000
B2   B   0.388902976832171   0.777737854173557   0.125050890690177   1.0000000
B2   B   0.222296457984575   0.277964275556040   0.125021776169862   1.0000000
B2   B   0.722061846551416   0.777673072367565   0.125061632159519   1.0000000
B2   B   0.555584133281914   0.278074919378133   0.125715591414497   1.0000000
B2   B   0.888823880029399   0.277796189054103   0.125091168932585   1.0000000
B2   B   0.055552899728861   0.444414410291749   0.624921939622696   1.0000000
B2   B   0.222239490324310   0.944570429114061   0.624953510363418   1.0000000
B2   B   0.555509120513928   0.944474029073554   0.624888241926420   1.0000000
B2   B   0.388923056503897   0.444392822899259   0.623989996604830   1.0000000
B2   B   0.888793047317798   0.944452323503383   0.624992380125185   1.0000000
B2   B   0.055515214676401   0.944523165254302   0.125007129697499   1.0000000
B2   B   0.721960911667393   0.444380611076915   0.624462161631140   1.0000000
B2   B   0.388906935531362   0.944549332142440   0.125099773367760   1.0000000
B2   B   0.222313961985580   0.444385999814444   0.125029155078759   1.0000000
B2   B   0.222272810448112   0.611034410517992   0.125095781013541   1.0000000
B2   B   0.555417831609552   0.444321513001128   0.126029507404452   1.0000000
B2   B   0.722118206807582   0.944423009803266   0.125046585621360   1.0000000
B2   B   0.888761041270410   0.444417201085739   0.125253514686479   1.0000000
B2   B   0.055505518309101   0.611072107423690   0.624911357735534   1.0000000
B2   B   0.222264466394064   0.111319184127155   0.624879261132269   1.0000000
B2   B   0.721958082934205   0.610950636558645   0.624794107433155   1.0000000
B2   B   0.555536901285614   0.111275047224273   0.624578348808251   1.0000000
B2   B   0.888817757653710   0.111140165130811   0.624998924071595   1.0000000


