data_1
_audit_creation_method   'vasp2cif'
_cell_length_a    14.93631414619966
_cell_length_b    14.936314146199727
_cell_length_c    13.341276283792837
_cell_angle_alpha    90.0
_cell_angle_beta    90.0
_cell_angle_gamma    119.99999999999984

_symmetry_space_group_name_H-M    'P 1'
loop_
_atom_site_label
_atom_site_type_symbol
_atom_site_fract_x
_atom_site_fract_y
_atom_site_fract_z
_atom_site_occupancy
O2   O   0.555555555555557   0.444444444444443   0.375000000000000   1.0000000
N2   N   0.111105643007321   0.055542121343233   0.124827138330220   1.0000000
N2   N   0.611107318338175   0.555547970009430   0.123249794573912   1.0000000
N2   N   0.444453842319283   0.055574127628513   0.124432433282192   1.0000000
N2   N   0.944425872371451   0.555546157680473   0.124432433282192   1.0000000
N2   N   0.777779559533034   0.055556446433250   0.125230047346780   1.0000000
N2   N   0.111104853636067   0.722219093484869   0.624772409211886   1.0000000
N2   N   0.444453842319283   0.722213048024297   0.625567566717683   1.0000000
N2   N   0.277732795394219   0.222210219538838   0.626277138047694   1.0000000
N2   N   0.777789780461284   0.722267204605750   0.626277138047694   1.0000000
N2   N   0.611144090811447   0.222210219538838   0.626277138047694   1.0000000
N2   N   0.944443553566609   0.222220440466872   0.624769952653265   1.0000000
N2   N   0.277780906515295   0.722219093484869   0.125227590788272   1.0000000
N2   N   0.111048732444200   0.222191032888773   0.124641908346092   1.0000000
N2   N   0.444454123136145   0.222241579605781   0.123262484231812   1.0000000
N2   N   0.611144090811447   0.722267204605750   0.123722861952254   1.0000000
N2   N   0.944425872371451   0.722213048024297   0.124432433282192   1.0000000
N2   N   0.777808967111505   0.222191032888773   0.124641908346092   1.0000000
N2   N   0.111116536523873   0.888883463476394   0.624947285922472   1.0000000
N2   N   0.444433593618915   0.888883463476394   0.624947285922472   1.0000000
N2   N   0.277732795394219   0.388855909188908   0.626277138047694   1.0000000
N2   N   0.611107318338175   0.388892681661949   0.626750205426156   1.0000000
N2   N   0.777808967111556   0.888951267555669   0.625358091653961   1.0000000
N2   N   0.944457878656613   0.388896854997511   0.625172861669957   1.0000000
N2   N   0.111105643007321   0.388896854997511   0.124827138330220   1.0000000
N2   N   0.277780906515295   0.888895146363919   0.125227590788272   1.0000000
N2   N   0.611103145002925   0.888894356992676   0.124827138330220   1.0000000
N2   N   0.444452029990407   0.388892681661949   0.123249794573904   1.0000000
N2   N   0.944457878656610   0.888894356992676   0.124827138330220   1.0000000
N2   N   0.777789780461284   0.388855909188908   0.123722861952256   1.0000000
N2   N   0.277786951975824   0.555546157680473   0.625567566717683   1.0000000
N2   N   0.111105643007321   0.055542121343233   0.625172861669957   1.0000000
N2   N   0.611107318338175   0.555547970009430   0.626750205426172   1.0000000
N2   N   0.444453842319283   0.055574127628512   0.625567566717683   1.0000000
N2   N   0.944425872371451   0.555546157680473   0.625567566717683   1.0000000
N2   N   0.111116536523873   0.555566406381121   0.125052714077766   1.0000000
N2   N   0.777779559533034   0.055556446433250   0.624769952653265   1.0000000
N2   N   0.277786951975824   0.055574127628514   0.124432433282192   1.0000000
N2   N   0.444454123136145   0.555545876863770   0.123262484231807   1.0000000
N2   N   0.777758420394375   0.555545876863770   0.123262484231809   1.0000000
N2   N   0.611103145002925   0.055542121343233   0.124827138330220   1.0000000
N2   N   0.444454123136145   0.555545876863770   0.626737515768013   1.0000000
N2   N   0.944443553566609   0.055556446433250   0.125230047346780   1.0000000
N2   N   0.277780906515295   0.722219093484869   0.624772409211886   1.0000000
N2   N   0.111048732444200   0.222191032888774   0.625358091653961   1.0000000
N2   N   0.444454123136145   0.222241579605781   0.626737515768013   1.0000000
N2   N   0.611144090811447   0.722267204605750   0.626277138047694   1.0000000
N2   N   0.944425872371451   0.722213048024297   0.625567566717683   1.0000000
N2   N   0.777808967111505   0.222191032888773   0.625358091653961   1.0000000
N2   N   0.111104853636067   0.722219093484869   0.125227590788272   1.0000000
N2   N   0.444453842319283   0.722213048024297   0.124432433282192   1.0000000
N2   N   0.277732795394219   0.222210219538840   0.123722861952257   1.0000000
N2   N   0.777789780461284   0.722267204605750   0.123722861952257   1.0000000
N2   N   0.611144090811447   0.222210219538840   0.123722861952257   1.0000000
N2   N   0.944443553566609   0.222220440466872   0.125230047346780   1.0000000
N2   N   0.111105643007321   0.388896854997511   0.625172861669957   1.0000000
N2   N   0.277780906515295   0.888895146363919   0.624772409211886   1.0000000
N2   N   0.611103145002925   0.888894356992676   0.625172861669957   1.0000000
N2   N   0.444452029990407   0.388892681661949   0.626750205426170   1.0000000
N2   N   0.944457878656613   0.888894356992676   0.625172861669957   1.0000000
N2   N   0.111116536523873   0.888883463476394   0.125052714077766   1.0000000
N2   N   0.777789780461284   0.388855909188908   0.626277138047694   1.0000000
N2   N   0.444433593618915   0.888883463476394   0.125052714077766   1.0000000
N2   N   0.277732795394219   0.388855909188908   0.123722861952257   1.0000000
N2   N   0.277786951975824   0.555546157680473   0.124432433282192   1.0000000
N2   N   0.611107318338175   0.388892681661949   0.123249794573916   1.0000000
N2   N   0.777808967111505   0.888951267555669   0.124641908346092   1.0000000
N2   N   0.944457878656613   0.388896854997511   0.124827138330220   1.0000000
N2   N   0.111116536523873   0.555566406381121   0.624947285922472   1.0000000
N2   N   0.277786951975824   0.055574127628515   0.625567566717683   1.0000000
N2   N   0.777758420394375   0.555545876863770   0.626737515768013   1.0000000
N2   N   0.611103145002925   0.055542121343233   0.625172861669957   1.0000000
N2   N   0.944443553566609   0.055556446433250   0.624769952653265   1.0000000
N2   N   0.055638754647770   0.111206474661655   0.375000000000000   1.0000000
N2   N   0.555100341922986   0.610281326799577   0.375000000000000   1.0000000
N2   N   0.388807917436596   0.110949168206606   0.375000000000000   1.0000000
N2   N   0.889050831793455   0.611192082563170   0.375000000000000   1.0000000
N2   N   0.722234386680398   0.111206474661655   0.375000000000000   1.0000000
N2   N   0.055550269387493   0.777771661597808   0.875000000000000   1.0000000
N2   N   0.388888058876867   0.777771661597808   0.875000000000000   1.0000000
N2   N   0.222216858302825   0.277775095817947   0.875000000000000   1.0000000
N2   N   0.722224904181668   0.777783141697441   0.875000000000000   1.0000000
N2   N   0.555566178693724   0.277785086450046   0.875000000000000   1.0000000
N2   N   0.888897610449210   0.277792919993240   0.875000000000000   1.0000000
N2   N   0.222222222222221   0.777777777777779   0.375000000000000   1.0000000
N2   N   0.055638754647771   0.277765613319508   0.375000000000000   1.0000000
N2   N   0.389718673200511   0.278152348456810   0.375000000000000   1.0000000
N2   N   0.555517707802437   0.777587761238937   0.375000000000000   1.0000000
N2   N   0.888736720103083   0.777587761238937   0.375000000000000   1.0000000
N2   N   0.722041448416743   0.277958551583309   0.375000000000000   1.0000000
N2   N   0.055563173226849   0.944436826772826   0.875000000000000   1.0000000
N2   N   0.388888058876867   0.944449730612367   0.875000000000000   1.0000000
N2   N   0.222225190107115   0.444452186907254   0.875000000000000   1.0000000
N2   N   0.555555555555557   0.444444444444443   0.875000000000000   1.0000000
N2   N   0.722207080006936   0.944438023789098   0.875000000000000   1.0000000
N2   N   0.888893663466967   0.444452186907254   0.875000000000000   1.0000000
N2   N   0.055550555010532   0.444434443354349   0.375000000000000   1.0000000
N2   N   0.222196209545523   0.944388117109297   0.375000000000000   1.0000000
N2   N   0.555565556645520   0.944449444989498   0.375000000000000   1.0000000
N2   N   0.389718673200514   0.444899658076850   0.375000000000000   1.0000000
N2   N   0.888793525338245   0.944361245352417   0.375000000000000   1.0000000
N2   N   0.721847651543328   0.444899658077019   0.375000000000000   1.0000000
N2   N   0.222228338402336   0.611111941123021   0.875000000000000   1.0000000
N2   N   0.055561976210683   0.111102389550832   0.875000000000000   1.0000000
N2   N   0.555566178693724   0.611114425576863   0.875000000000000   1.0000000
N2   N   0.388895639203908   0.111124611741351   0.875000000000000   1.0000000
N2   N   0.888875388258834   0.611104360795995   0.875000000000000   1.0000000
N2   N   0.055611882890456   0.611141425769446   0.375000000000000   1.0000000
N2   N   0.722207080006936   0.111102389550833   0.875000000000000   1.0000000
N2   N   0.222412238761296   0.111263279897190   0.375000000000000   1.0000000
N2   N   0.388807917436596   0.611192082563170   0.375000000000000   1.0000000
N2   N   0.721847651543328   0.610281326799577   0.375000000000000   1.0000000
N2   N   0.555517707802438   0.111263279897190   0.375000000000000   1.0000000
N2   N   0.388895639203911   0.611104360795995   0.875000000000000   1.0000000
N2   N   0.888888888888886   0.111111111111114   0.375000000000000   1.0000000
N2   N   0.222222222222221   0.777777777777779   0.875000000000000   1.0000000
N2   N   0.055561976210683   0.277792919993240   0.875000000000000   1.0000000
N2   N   0.388885574423180   0.277785086450046   0.875000000000000   1.0000000
N2   N   0.555547813092670   0.777774809893013   0.875000000000000   1.0000000
N2   N   0.888893663466967   0.777774809893013   0.875000000000000   1.0000000
N2   N   0.722224904181668   0.277775095817947   0.875000000000000   1.0000000
N2   N   0.055611882890456   0.777803790454347   0.375000000000000   1.0000000
N2   N   0.388858574230675   0.777803790454347   0.375000000000000   1.0000000
N2   N   0.222583769833426   0.277958551583259   0.375000000000000   1.0000000
N2   N   0.722041448416743   0.777416230166817   0.375000000000000   1.0000000
N2   N   0.555100341922986   0.278152348456811   0.375000000000000   1.0000000
N2   N   0.888793525338245   0.277765613319508   0.375000000000000   1.0000000
N2   N   0.055563173226849   0.444459679787053   0.875000000000000   1.0000000
N2   N   0.222228338402336   0.944449730612367   0.875000000000000   1.0000000
N2   N   0.555540320212875   0.944436826772826   0.875000000000000   1.0000000
N2   N   0.388885574423198   0.444433821306495   0.875000000000000   1.0000000
N2   N   0.888897610449210   0.944438023789098   0.875000000000000   1.0000000
N2   N   0.055550555010528   0.944449444989498   0.375000000000000   1.0000000
N2   N   0.722214913550028   0.444433821306499   0.875000000000000   1.0000000
N2   N   0.388858574230675   0.944388117109297   0.375000000000000   1.0000000
N2   N   0.222412238761300   0.444482292197337   0.375000000000000   1.0000000
N2   N   0.222196209545523   0.611141425769446   0.375000000000000   1.0000000
N2   N   0.722234386680398   0.944361245352417   0.375000000000000   1.0000000
N2   N   0.888736720103083   0.444482292197337   0.375000000000000   1.0000000
N2   N   0.055550269387493   0.611111941123020   0.875000000000000   1.0000000
N2   N   0.222225190107115   0.111106336533288   0.875000000000000   1.0000000
N2   N   0.722214913550028   0.611114425576863   0.875000000000000   1.0000000
N2   N   0.555547813092670   0.111106336533288   0.875000000000000   1.0000000
N2   N   0.888888888888886   0.111111111111114   0.875000000000000   1.0000000
B2   B   0.111200363863433   0.055680821292027   0.375000000000000   1.0000000
B2   B   0.612222234307917   0.557777801949336   0.375000000000000   1.0000000
B2   B   0.444448743125621   0.055292359375791   0.375000000000000   1.0000000
B2   B   0.944707640624455   0.555551256874529   0.375000000000000   1.0000000
B2   B   0.777879087984073   0.055606210658606   0.375000000000000   1.0000000
B2   B   0.111122975423045   0.722228154378244   0.875000000000000   1.0000000
B2   B   0.444471250969659   0.722224758009477   0.875000000000000   1.0000000
B2   B   0.277741740523805   0.222193448506356   0.875000000000000   1.0000000
B2   B   0.777806551493683   0.722258259476231   0.875000000000000   1.0000000
B2   B   0.611118374649340   0.222193448506356   0.875000000000000   1.0000000
B2   B   0.944439340488070   0.222212014308857   0.875000000000000   1.0000000
B2   B   0.277694511315996   0.722305488683731   0.375000000000000   1.0000000
B2   B   0.111268126437906   0.222300729885577   0.375000000000000   1.0000000
B2   B   0.443979331586312   0.221291996506180   0.375000000000000   1.0000000
B2   B   0.610914053989131   0.722141615893761   0.375000000000000   1.0000000
B2   B   0.944707640624455   0.722489717083456   0.375000000000000   1.0000000
B2   B   0.777699270114756   0.222300729885577   0.375000000000000   1.0000000
B2   B   0.111115740693984   0.888884259306083   0.875000000000000   1.0000000
B2   B   0.444435185278730   0.888884259306083   0.875000000000000   1.0000000
B2   B   0.277741740523805   0.388881625350928   0.875000000000000   1.0000000
B2   B   0.611112397428950   0.388887602570813   0.875000000000000   1.0000000
B2   B   0.777786563824092   0.888906460981716   0.875000000000000   1.0000000
B2   B   0.944446676490575   0.388911582578946   0.875000000000000   1.0000000
B2   B   0.111200363863433   0.388852875904818   0.375000000000000   1.0000000
B2   B   0.277694511315996   0.888722355965321   0.375000000000000   1.0000000
B2   B   0.611147124095386   0.888799636136623   0.375000000000000   1.0000000
B2   B   0.442222198050787   0.387777765691996   0.375000000000000   1.0000000
B2   B   0.944319178708032   0.888799636136623   0.375000000000000   1.0000000
B2   B   0.777894228571027   0.389085946010832   0.375000000000000   1.0000000
B2   B   0.277775241990506   0.555528749030432   0.875000000000000   1.0000000
B2   B   0.111131572755265   0.055553323509692   0.875000000000000   1.0000000
B2   B   0.611112397428950   0.555558128191702   0.875000000000000   1.0000000
B2   B   0.444471250969659   0.055579826293475   0.875000000000000   1.0000000
B2   B   0.944420173706199   0.555528749030432   0.875000000000000   1.0000000
B2   B   0.111072000632766   0.555477334598522   0.375000000000000   1.0000000
B2   B   0.777787985690922   0.055560659512224   0.875000000000000   1.0000000
B2   B   0.277510282916735   0.055292359375791   0.375000000000000   1.0000000
B2   B   0.443979331586281   0.556020668413474   0.375000000000000   1.0000000
B2   B   0.778708003494040   0.556020668413474   0.375000000000000   1.0000000
B2   B   0.611147124095386   0.055680821292037   0.375000000000000   1.0000000
B2   B   0.444449291841104   0.555550708158941   0.875000000000000   1.0000000
B2   B   0.944393789341215   0.055606210658606   0.375000000000000   1.0000000
B2   B   0.277771845621914   0.722228154378244   0.875000000000000   1.0000000
B2   B   0.111093539018406   0.222213436175911   0.875000000000000   1.0000000
B2   B   0.444449291841104   0.222231917015572   0.875000000000000   1.0000000
B2   B   0.611118374649340   0.722258259476231   0.875000000000000   1.0000000
B2   B   0.944420173706199   0.722224758009477   0.875000000000000   1.0000000
B2   B   0.777786563824092   0.222213436175911   0.875000000000000   1.0000000
B2   B   0.111277644034351   0.722305488683731   0.375000000000000   1.0000000
B2   B   0.444448743125621   0.722489717083456   0.375000000000000   1.0000000
B2   B   0.277858384106574   0.222105771428961   0.375000000000000   1.0000000
B2   B   0.777894228571027   0.722141615893781   0.375000000000000   1.0000000
B2   B   0.610914053989131   0.222105771428961   0.375000000000000   1.0000000
B2   B   0.944393789341215   0.222120912016130   0.375000000000000   1.0000000
B2   B   0.111131572755263   0.388911582578946   0.875000000000000   1.0000000
B2   B   0.277771845621914   0.888877024577156   0.875000000000000   1.0000000
B2   B   0.611088417420887   0.888868427244912   0.875000000000000   1.0000000
B2   B   0.444441871808414   0.388887602570813   0.875000000000000   1.0000000
B2   B   0.944446676490575   0.888868427244912   0.875000000000000   1.0000000
B2   B   0.111072000632765   0.888927999367462   0.375000000000000   1.0000000
B2   B   0.777806551493683   0.388881625350928   0.875000000000000   1.0000000
B2   B   0.444522665400983   0.888927999367462   0.375000000000000   1.0000000
B2   B   0.277858384106549   0.389085946010835   0.375000000000000   1.0000000
B2   B   0.277510282916735   0.555551256874529   0.375000000000000   1.0000000
B2   B   0.612222234307917   0.387777765691996   0.375000000000000   1.0000000
B2   B   0.777699270114756   0.888731873562410   0.375000000000000   1.0000000
B2   B   0.944319178708032   0.388852875904818   0.375000000000000   1.0000000
B2   B   0.111115740693984   0.555564814721475   0.875000000000000   1.0000000
B2   B   0.277775241990506   0.055579826293475   0.875000000000000   1.0000000
B2   B   0.777768082984455   0.555550708158941   0.875000000000000   1.0000000
B2   B   0.611088417420887   0.055553323509692   0.875000000000000   1.0000000
B2   B   0.944439340488070   0.055560659512224   0.875000000000000   1.0000000
B2   B   0.055528770874161   0.111139387235834   0.125009260889963   1.0000000
B2   B   0.555502948879134   0.611181474051418   0.123284691028534   1.0000000
B2   B   0.388895670712560   0.111124674758416   0.124052031495396   1.0000000
B2   B   0.888875325241537   0.611104329287142   0.124052031495396   1.0000000
B2   B   0.722277283028320   0.111139387235834   0.125009260889963   1.0000000
B2   B   0.055574270851496   0.777814394369651   0.624969856826100   1.0000000
B2   B   0.388906790184843   0.777814394369655   0.624969856826100   1.0000000
B2   B   0.222089596067215   0.277711464700298   0.625957494088131   1.0000000
B2   B   0.722288535299861   0.777910403932740   0.625957494088128   1.0000000
B2   B   0.555502948879134   0.277654808160736   0.626715308971323   1.0000000
B2   B   0.888860612764148   0.277722716971590   0.624990739109675   1.0000000
B2   B   0.222222222222221   0.777777777777779   0.125439344495104   1.0000000
B2   B   0.055528770874159   0.277722716971590   0.125009260889963   1.0000000
B2   B   0.388818525948220   0.277654808160736   0.123284691028534   1.0000000
B2   B   0.555582938860109   0.777818820379031   0.124383479037052   1.0000000
B2   B   0.888902548185571   0.777818820379031   0.124383479037053   1.0000000
B2   B   0.722288535299861   0.277711464700298   0.124042505911899   1.0000000
B2   B   0.055565808174571   0.944434191825539   0.624993084128215   1.0000000
B2   B   0.388906790184843   0.944425729148433   0.624969856826100   1.0000000
B2   B   0.222181179621011   0.444417061139973   0.625616520962890   1.0000000
B2   B   0.555555555555557   0.444444444444443   0.627434997454795   1.0000000
B2   B   0.722277283028320   0.944471229125682   0.624990739109675   1.0000000
B2   B   0.888902548185571   0.444417061139973   0.625616520962890   1.0000000
B2   B   0.055565808174568   0.444464949682450   0.125006915871908   1.0000000
B2   B   0.222185605630359   0.944425729148433   0.125030143173853   1.0000000
B2   B   0.555535050317541   0.944434191825539   0.125006915871908   1.0000000
B2   B   0.388818525948220   0.444497051120922   0.123284691028534   1.0000000
B2   B   0.888860612764148   0.944471229125682   0.125009260889963   1.0000000
B2   B   0.722345191839348   0.444497051120922   0.123284691028534   1.0000000
B2   B   0.222185605630359   0.611093209815128   0.624969856826100   1.0000000
B2   B   0.055528770874159   0.111139387235834   0.624990739109675   1.0000000
B2   B   0.555502948879134   0.611181474051418   0.626715308971335   1.0000000
B2   B   0.388895670712560   0.111124674758415   0.625947968504544   1.0000000
B2   B   0.888875325241537   0.611104329287142   0.625947968504544   1.0000000
B2   B   0.055574270851496   0.611093209815128   0.125030143173853   1.0000000
B2   B   0.722277283028320   0.111139387235834   0.624990739109675   1.0000000
B2   B   0.222181179621011   0.111097451814446   0.124383479037053   1.0000000
B2   B   0.388895670712560   0.611104329287142   0.124052031495397   1.0000000
B2   B   0.722345191839348   0.611181474051418   0.123284691028534   1.0000000
B2   B   0.555582938860109   0.111097451814446   0.124383479037053   1.0000000
B2   B   0.388895670712559   0.611104329287142   0.625947968504544   1.0000000
B2   B   0.888888888888886   0.111111111111114   0.125400193339569   1.0000000
B2   B   0.222222222222221   0.777777777777779   0.624560655504854   1.0000000
B2   B   0.055528770874159   0.277722716971590   0.624990739109675   1.0000000
B2   B   0.388818525948220   0.277654808160736   0.626715308971323   1.0000000
B2   B   0.555582938860109   0.777818820379031   0.625616520962890   1.0000000
B2   B   0.888902548185571   0.777818820379031   0.625616520962890   1.0000000
B2   B   0.722288535299861   0.277711464700298   0.625957494088128   1.0000000
B2   B   0.055574270851496   0.777814394369655   0.125030143173853   1.0000000
B2   B   0.388906790184830   0.777814394369651   0.125030143173853   1.0000000
B2   B   0.222089596067215   0.277711464700298   0.124042505911900   1.0000000
B2   B   0.722288535299861   0.777910403932740   0.124042505911899   1.0000000
B2   B   0.555502948879134   0.277654808160736   0.123284691028533   1.0000000
B2   B   0.888860612764148   0.277722716971590   0.125009260889963   1.0000000
B2   B   0.055565808174568   0.444464949682450   0.624993084128215   1.0000000
B2   B   0.222185605630359   0.944425729148433   0.624969856826100   1.0000000
B2   B   0.555535050317541   0.944434191825539   0.624993084128215   1.0000000
B2   B   0.388818525948220   0.444497051120922   0.626715308971335   1.0000000
B2   B   0.888860612764148   0.944471229125682   0.624990739109675   1.0000000
B2   B   0.055565808174568   0.944434191825539   0.125006915871908   1.0000000
B2   B   0.722345191839348   0.444497051120922   0.626715308971336   1.0000000
B2   B   0.388906790184843   0.944425729148433   0.125030143173853   1.0000000
B2   B   0.222181179621011   0.444417061139974   0.124383479037052   1.0000000
B2   B   0.222185605630360   0.611093209815128   0.125030143173853   1.0000000
B2   B   0.555555555555557   0.444444444444443   0.122565002545132   1.0000000
B2   B   0.722277283028320   0.944471229125682   0.125009260889963   1.0000000
B2   B   0.888902548185571   0.444417061139974   0.124383479037053   1.0000000
B2   B   0.055574270851496   0.611093209815128   0.624969856826100   1.0000000
B2   B   0.222181179621011   0.111097451814447   0.625616520962891   1.0000000
B2   B   0.722345191839348   0.611181474051418   0.626715308971335   1.0000000
B2   B   0.555582938860109   0.111097451814447   0.625616520962891   1.0000000
B2   B   0.888888888888886   0.111111111111114   0.624599806660633   1.0000000


