data_1
_audit_creation_method   'vasp2cif'
_cell_length_a    14.93631414619966
_cell_length_b    14.936314146199727
_cell_length_c    13.341276283792837
_cell_angle_alpha    90.0
_cell_angle_beta    90.0
_cell_angle_gamma    119.99999999999984

_symmetry_space_group_name_H-M    'P 1'
loop_
_atom_site_label
_atom_site_type_symbol
_atom_site_fract_x
_atom_site_fract_y
_atom_site_fract_z
_atom_site_occupancy
O2   O   0.443077628338423   0.386423420278801   0.375000000000000   1.0000000
N2   N   0.111041222740866   0.055539926714553   0.124806723795065   1.0000000
N2   N   0.611110279018475   0.555552103625103   0.125070164218916   1.0000000
N2   N   0.444422908249027   0.055572031678880   0.125016792711379   1.0000000
N2   N   0.944421698553946   0.555553313097875   0.125026523227257   1.0000000
N2   N   0.777766872816141   0.055524313734892   0.124791642080842   1.0000000
N2   N   0.111083348215981   0.722227051939070   0.625168544016634   1.0000000
N2   N   0.444444974082600   0.722203785612403   0.625139095506012   1.0000000
N2   N   0.277675925243681   0.222186553129712   0.624966629629541   1.0000000
N2   N   0.777794322405447   0.722257306730488   0.625189356254566   1.0000000
N2   N   0.611110095015226   0.222212150617902   0.624217119673248   1.0000000
N2   N   0.944410548325163   0.222171865228200   0.625231838062785   1.0000000
N2   N   0.277761683537620   0.722214794115664   0.124851516485068   1.0000000
N2   N   0.111024228642115   0.222160169147310   0.124769016396291   1.0000000
N2   N   0.444356959885958   0.222203536817497   0.125568679438414   1.0000000
N2   N   0.611120095761916   0.722209698580042   0.124814507707911   1.0000000
N2   N   0.944437459465338   0.722263702949438   0.124830303825231   1.0000000
N2   N   0.777776064994456   0.222187361300079   0.124913570344090   1.0000000
N2   N   0.111078237668718   0.888910287393998   0.625176219104534   1.0000000
N2   N   0.444438312814702   0.888897602825467   0.625167658665122   1.0000000
N2   N   0.277728873860750   0.388822962491641   0.624915939663572   1.0000000
N2   N   0.611073521389060   0.388917113925160   0.624149058204542   1.0000000
N2   N   0.777776210795777   0.888887618551682   0.625150615313745   1.0000000
N2   N   0.944421067562072   0.388852897501260   0.625145861465108   1.0000000
N2   N   0.111075040285488   0.388839787028505   0.124826212075308   1.0000000
N2   N   0.277755900465163   0.888907646397312   0.124823620960604   1.0000000
N2   N   0.611110356221133   0.888881125485547   0.124832723987680   1.0000000
N2   N   0.444397628652235   0.388856483844744   0.125680657907112   1.0000000
N2   N   0.944431855033709   0.888916903559957   0.124818098580673   1.0000000
N2   N   0.777772581542254   0.388865002695626   0.125737995006909   1.0000000
N2   N   0.277763920731897   0.555516674384849   0.625109020040939   1.0000000
N2   N   0.111041222740866   0.055539926714553   0.625193276204936   1.0000000
N2   N   0.611110279018475   0.555552103625103   0.624929835781084   1.0000000
N2   N   0.444422908249027   0.055572031678880   0.624983207288621   1.0000000
N2   N   0.944421698553946   0.555553313097875   0.624973476772743   1.0000000
N2   N   0.111081972826420   0.555529784741341   0.124825769154445   1.0000000
N2   N   0.777766872816141   0.055524313734892   0.625208357919157   1.0000000
N2   N   0.277715608421156   0.055561646653551   0.124845838294619   1.0000000
N2   N   0.444455742001241   0.555528400243802   0.125040353633585   1.0000000
N2   N   0.777795225111583   0.555632078412406   0.125360761834871   1.0000000
N2   N   0.611109610696194   0.055551180969042   0.124860557307206   1.0000000
N2   N   0.444455742001241   0.555528400243802   0.624959646366417   1.0000000
N2   N   0.944401678753951   0.055525473288598   0.124806519619071   1.0000000
N2   N   0.277761683537620   0.722214794115664   0.625148483514931   1.0000000
N2   N   0.111024228642115   0.222160169147310   0.625230983603710   1.0000000
N2   N   0.444356959885958   0.222203536817497   0.624431320561585   1.0000000
N2   N   0.611120095761916   0.722209698580042   0.625185492292089   1.0000000
N2   N   0.944437459465338   0.722263702949438   0.625169696174769   1.0000000
N2   N   0.777776064994456   0.222187361300079   0.625086429655909   1.0000000
N2   N   0.111083348215981   0.722227051939070   0.124831455983367   1.0000000
N2   N   0.444444974082600   0.722203785612403   0.124860904493987   1.0000000
N2   N   0.277675925243681   0.222186553129712   0.125033370370460   1.0000000
N2   N   0.777794322405447   0.722257306730488   0.124810643745435   1.0000000
N2   N   0.611110095015226   0.222212150617902   0.125782880326752   1.0000000
N2   N   0.944410548325163   0.222171865228200   0.124768161937216   1.0000000
N2   N   0.111075040285488   0.388839787028505   0.625173787924691   1.0000000
N2   N   0.277755900465163   0.888907646397312   0.625176379039397   1.0000000
N2   N   0.611110356221133   0.888881125485547   0.625167276012318   1.0000000
N2   N   0.444397628652235   0.388856483844744   0.624319342092888   1.0000000
N2   N   0.944431855033709   0.888916903559957   0.625181901419326   1.0000000
N2   N   0.111078237668718   0.888910287393998   0.124823780895466   1.0000000
N2   N   0.777772581542254   0.388865002695626   0.624262004993091   1.0000000
N2   N   0.444438312814702   0.888897602825467   0.124832341334878   1.0000000
N2   N   0.277728873860750   0.388822962491641   0.125084060336428   1.0000000
N2   N   0.277763920731897   0.555516674384849   0.124890979959061   1.0000000
N2   N   0.611073521389060   0.388917113925160   0.125850941795458   1.0000000
N2   N   0.777776210795777   0.888887618551682   0.124849384686255   1.0000000
N2   N   0.944421067562072   0.388852897501260   0.124854138534892   1.0000000
N2   N   0.111081972826420   0.555529784741341   0.625174230845555   1.0000000
N2   N   0.277715608421156   0.055561646653551   0.625154161705381   1.0000000
N2   N   0.777795225111583   0.555632078412406   0.624639238165130   1.0000000
N2   N   0.611109610696194   0.055551180969042   0.625139442692795   1.0000000
N2   N   0.944401678753951   0.055525473288598   0.625193480380929   1.0000000
N2   N   0.053905594990427   0.110475641500977   0.375000000000000   1.0000000
N2   N   0.557018639641491   0.609510588250361   0.375000000000000   1.0000000
N2   N   0.386231512792121   0.110136994625223   0.375000000000000   1.0000000
N2   N   0.893616571033537   0.614574537027108   0.375000000000000   1.0000000
N2   N   0.721203429869185   0.111406221464751   0.375000000000000   1.0000000
N2   N   0.055562008217443   0.777775235536165   0.875000000000000   1.0000000
N2   N   0.388884433525906   0.777776717365124   0.875000000000000   1.0000000
N2   N   0.222225964999974   0.277789116715678   0.875000000000000   1.0000000
N2   N   0.722213681834645   0.777775670418961   0.875000000000000   1.0000000
N2   N   0.555556487086369   0.277777216695780   0.875000000000000   1.0000000
N2   N   0.888891129029056   0.277789271310018   0.875000000000000   1.0000000
N2   N   0.223562283320592   0.777556991072508   0.375000000000000   1.0000000
N2   N   0.054022832261988   0.277469860738648   0.375000000000000   1.0000000
N2   N   0.383446821486536   0.276130011055592   0.375000000000000   1.0000000
N2   N   0.555701115299061   0.776694272308276   0.375000000000000   1.0000000
N2   N   0.890955295148566   0.779680706725461   0.375000000000000   1.0000000
N2   N   0.721367748180638   0.278953548407329   0.375000000000000   1.0000000
N2   N   0.055558392513656   0.944443884059044   0.875000000000000   1.0000000
N2   N   0.388887348520295   0.944436992848690   0.875000000000000   1.0000000
N2   N   0.222225884414178   0.444457583993869   0.875000000000000   1.0000000
N2   N   0.555551078823304   0.444449665780935   0.875000000000000   1.0000000
N2   N   0.722212237920529   0.944443005657220   0.875000000000000   1.0000000
N2   N   0.888898048648132   0.444453321672262   0.875000000000000   1.0000000
N2   N   0.056613693992977   0.444625646436937   0.375000000000000   1.0000000
N2   N   0.222207179561038   0.943953939661413   0.375000000000000   1.0000000
N2   N   0.555126100965443   0.943669444927629   0.375000000000000   1.0000000
N2   N   0.385934989721898   0.439514954761191   0.375000000000000   1.0000000
N2   N   0.888457910753209   0.944678513227909   0.375000000000000   1.0000000
N2   N   0.727147185911111   0.449656495638442   0.375000000000000   1.0000000
N2   N   0.222224195802150   0.611116249048647   0.875000000000000   1.0000000
N2   N   0.055556398712683   0.111113895528293   0.875000000000000   1.0000000
N2   N   0.555546142093842   0.611112729524717   0.875000000000000   1.0000000
N2   N   0.388893215805483   0.111107629515473   0.875000000000000   1.0000000
N2   N   0.888895611866007   0.611108688765869   0.875000000000000   1.0000000
N2   N   0.058038412568520   0.611896116115455   0.375000000000000   1.0000000
N2   N   0.722212963914735   0.111110989508438   0.875000000000000   1.0000000
N2   N   0.220974566559175   0.110593964348709   0.375000000000000   1.0000000
N2   N   0.389864602543467   0.608009604804859   0.375000000000000   1.0000000
N2   N   0.726086218778620   0.614430693731746   0.375000000000000   1.0000000
N2   N   0.554441127816627   0.110423944106873   0.375000000000000   1.0000000
N2   N   0.388884976840589   0.611116567288866   0.875000000000000   1.0000000
N2   N   0.887673109161906   0.111134325391838   0.375000000000000   1.0000000
N2   N   0.222226285878205   0.777775374698548   0.875000000000000   1.0000000
N2   N   0.055558515561950   0.277790149307787   0.875000000000000   1.0000000
N2   N   0.388894199154338   0.277787969580002   0.875000000000000   1.0000000
N2   N   0.555544131032918   0.777776624171039   0.875000000000000   1.0000000
N2   N   0.888889713085006   0.777775732262253   0.875000000000000   1.0000000
N2   N   0.722220887729075   0.277781506659572   0.875000000000000   1.0000000
N2   N   0.057779785653607   0.778990146641987   0.375000000000000   1.0000000
N2   N   0.389573464820668   0.776312155597184   0.375000000000000   1.0000000
N2   N   0.218559427583375   0.275999864895825   0.375000000000000   1.0000000
N2   N   0.722649007897859   0.778327145498457   0.375000000000000   1.0000000
N2   N   0.551624897923882   0.276210524723509   0.375000000000000   1.0000000
N2   N   0.888088386144027   0.278201729577238   0.375000000000000   1.0000000
N2   N   0.055561747880220   0.444456358810354   0.875000000000000   1.0000000
N2   N   0.222227069701735   0.944440709138948   0.875000000000000   1.0000000
N2   N   0.555544126451172   0.944439665877138   0.875000000000000   1.0000000
N2   N   0.388889620064162   0.444456115963398   0.875000000000000   1.0000000
N2   N   0.888887492983672   0.944444607051834   0.875000000000000   1.0000000
N2   N   0.055920107012677   0.944932170469888   0.375000000000000   1.0000000
N2   N   0.722225137720150   0.444445848276352   0.875000000000000   1.0000000
N2   N   0.388781033125285   0.943782222267216   0.375000000000000   1.0000000
N2   N   0.222474455779881   0.443570986202012   0.375000000000000   1.0000000
N2   N   0.223745842100508   0.610548633961989   0.375000000000000   1.0000000
N2   N   0.721605633236266   0.944468440285284   0.375000000000000   1.0000000
N2   N   0.891212577314157   0.445759662778997   0.375000000000000   1.0000000
N2   N   0.055565500078778   0.611113808256492   0.875000000000000   1.0000000
N2   N   0.222226475954664   0.111113539869006   0.875000000000000   1.0000000
N2   N   0.722216383946388   0.611108297658879   0.875000000000000   1.0000000
N2   N   0.555549103507422   0.111104685419813   0.875000000000000   1.0000000
N2   N   0.888886697646404   0.111115068351600   0.875000000000000   1.0000000
B2   B   0.110733068649207   0.055787657969110   0.375000000000000   1.0000000
B2   B   0.617215783629731   0.558117368531367   0.375000000000000   1.0000000
B2   B   0.444015340642084   0.056526627687133   0.375000000000000   1.0000000
B2   B   0.945970813038383   0.556288380327292   0.375000000000000   1.0000000
B2   B   0.776310568510191   0.056154098575656   0.375000000000000   1.0000000
B2   B   0.111082685113781   0.722193607388298   0.875000000000000   1.0000000
B2   B   0.444441631172059   0.722213714706200   0.875000000000000   1.0000000
B2   B   0.277896916407495   0.222276218550586   0.875000000000000   1.0000000
B2   B   0.777729159432132   0.722106946125179   0.875000000000000   1.0000000
B2   B   0.611105555131135   0.222307367469231   0.875000000000000   1.0000000
B2   B   0.944410924110927   0.222266185482398   0.875000000000000   1.0000000
B2   B   0.278719307558018   0.721594178695226   0.375000000000000   1.0000000
B2   B   0.108616726220357   0.221318793283468   0.375000000000000   1.0000000
B2   B   0.447612400418982   0.224940533840319   0.375000000000000   1.0000000
B2   B   0.611595574433368   0.721270440874695   0.375000000000000   1.0000000
B2   B   0.946657155152509   0.723405426993773   0.375000000000000   1.0000000
B2   B   0.775470747668238   0.224115372491592   0.375000000000000   1.0000000
B2   B   0.111129721632271   0.888876404880674   0.875000000000000   1.0000000
B2   B   0.444448694397537   0.888930746829944   0.875000000000000   1.0000000
B2   B   0.277845226200399   0.388907205309534   0.875000000000000   1.0000000
B2   B   0.611126901425178   0.388870594736200   0.875000000000000   1.0000000
B2   B   0.777747651776571   0.888853826463566   0.875000000000000   1.0000000
B2   B   0.944372291751825   0.388912043243035   0.875000000000000   1.0000000
B2   B   0.110966821011693   0.388556410168015   0.375000000000000   1.0000000
B2   B   0.278334655483486   0.888815512663995   0.375000000000000   1.0000000
B2   B   0.610529196968785   0.888312922180842   0.375000000000000   1.0000000
B2   B   0.944994093474432   0.889673367986070   0.375000000000000   1.0000000
B2   B   0.776011303293260   0.392973773367980   0.375000000000000   1.0000000
B2   B   0.277785865428685   0.555556769315211   0.875000000000000   1.0000000
B2   B   0.111166968980959   0.055575935248492   0.875000000000000   1.0000000
B2   B   0.611106162586701   0.555454071714688   0.875000000000000   1.0000000
B2   B   0.444495514194679   0.055640847560804   0.875000000000000   1.0000000
B2   B   0.944363952924806   0.555504502823223   0.875000000000000   1.0000000
B2   B   0.112342111895712   0.555576889765960   0.375000000000000   1.0000000
B2   B   0.777738542264353   0.055594361913753   0.875000000000000   1.0000000
B2   B   0.277401327005943   0.055354877677873   0.375000000000000   1.0000000
B2   B   0.446110952752068   0.551438236103290   0.375000000000000   1.0000000
B2   B   0.780226542626304   0.553952820927897   0.375000000000000   1.0000000
B2   B   0.609724763720991   0.056031836518875   0.375000000000000   1.0000000
B2   B   0.444475718956637   0.555518615120505   0.875000000000000   1.0000000
B2   B   0.943095525219315   0.055553442826882   0.375000000000000   1.0000000
B2   B   0.277771003239345   0.722228358312540   0.875000000000000   1.0000000
B2   B   0.111151942614030   0.222257022907188   0.875000000000000   1.0000000
B2   B   0.444559696000622   0.222301497098736   0.875000000000000   1.0000000
B2   B   0.611091992071791   0.722156244006797   0.875000000000000   1.0000000
B2   B   0.944390036625923   0.722130055559895   0.875000000000000   1.0000000
B2   B   0.777713597327894   0.222290321428290   0.875000000000000   1.0000000
B2   B   0.112554653659493   0.722504353484597   0.375000000000000   1.0000000
B2   B   0.444792181140378   0.719945215315767   0.375000000000000   1.0000000
B2   B   0.275582321442174   0.222126177299210   0.375000000000000   1.0000000
B2   B   0.779750519746794   0.723613524807068   0.375000000000000   1.0000000
B2   B   0.607376701074206   0.225938444614861   0.375000000000000   1.0000000
B2   B   0.942601335259926   0.222587008903370   0.375000000000000   1.0000000
B2   B   0.111103777490484   0.388913783498475   0.875000000000000   1.0000000
B2   B   0.277807311391524   0.888920543680568   0.875000000000000   1.0000000
B2   B   0.611086986706309   0.888899514584075   0.875000000000000   1.0000000
B2   B   0.444541749677595   0.388891577399221   0.875000000000000   1.0000000
B2   B   0.944431076905771   0.888839154230595   0.875000000000000   1.0000000
B2   B   0.111908189346011   0.889340677640869   0.375000000000000   1.0000000
B2   B   0.777696471282195   0.388896150342389   0.875000000000000   1.0000000
B2   B   0.444351103043183   0.888248197718645   0.375000000000000   1.0000000
B2   B   0.275922554654318   0.385905826705902   0.375000000000000   1.0000000
B2   B   0.278777868086203   0.554384914160022   0.375000000000000   1.0000000
B2   B   0.777326344939080   0.889095639613670   0.375000000000000   1.0000000
B2   B   0.944459635748464   0.389778955844492   0.375000000000000   1.0000000
B2   B   0.111069640399741   0.555548191645982   0.875000000000000   1.0000000
B2   B   0.277872196849373   0.055616263633913   0.875000000000000   1.0000000
B2   B   0.777703037774825   0.555438066375726   0.875000000000000   1.0000000
B2   B   0.611089687420817   0.055631087048583   0.875000000000000   1.0000000
B2   B   0.944440223657970   0.055565739293433   0.875000000000000   1.0000000
B2   B   0.055534549144232   0.111084623544269   0.125134984533517   1.0000000
B2   B   0.555696347647715   0.610864341017132   0.125378874910812   1.0000000
B2   B   0.389116066049584   0.111490343593569   0.126014703705345   1.0000000
B2   B   0.888525657957421   0.610866637854324   0.125957768483892   1.0000000
B2   B   0.722190047219227   0.111279534089902   0.125416640310750   1.0000000
B2   B   0.055400475619760   0.777720217770321   0.624743244798918   1.0000000
B2   B   0.388925827881493   0.777850245826002   0.624833383619575   1.0000000
B2   B   0.222285347743181   0.277693315591685   0.624660138424327   1.0000000
B2   B   0.722258643111542   0.777648417938615   0.624795169117029   1.0000000
B2   B   0.555712373832349   0.278112142201774   0.621322077662713   1.0000000
B2   B   0.888683296474695   0.277771558039553   0.624588921984641   1.0000000
B2   B   0.222157610873356   0.777832266075099   0.125191608403588   1.0000000
B2   B   0.055456719043620   0.277702689140043   0.125140439148215   1.0000000
B2   B   0.389162306465502   0.277845648902802   0.126602919410700   1.0000000
B2   B   0.555633566570440   0.777748614148857   0.125147725838942   1.0000000
B2   B   0.888792784148803   0.777642502702313   0.125303032833763   1.0000000
B2   B   0.722041430911301   0.277939944959467   0.126811192638677   1.0000000
B2   B   0.055533257412744   0.944451245404749   0.624810415472048   1.0000000
B2   B   0.389000367878237   0.944731772154651   0.624665284959103   1.0000000
B2   B   0.222213626873184   0.444314795558686   0.624766442941794   1.0000000
B2   B   0.555715314168467   0.444138093643982   0.622563881138638   1.0000000
B2   B   0.722239481532590   0.944482824893596   0.624819870988871   1.0000000
B2   B   0.888451546524769   0.444286063525046   0.623863727886604   1.0000000
B2   B   0.055326061230416   0.444334068313585   0.125238606762061   1.0000000
B2   B   0.222274000243254   0.944608950152284   0.125251196671599   1.0000000
B2   B   0.555628411185398   0.944646564743871   0.125247110572957   1.0000000
B2   B   0.389100529477101   0.444225841700850   0.125897167782013   1.0000000
B2   B   0.888869334889772   0.944406953630747   0.125170765733435   1.0000000
B2   B   0.721868983655886   0.444253972863313   0.128614688310216   1.0000000
B2   B   0.222127862544628   0.611042351998813   0.624831211983106   1.0000000
B2   B   0.055534549144232   0.111084623544269   0.624865015466484   1.0000000
B2   B   0.555696347647715   0.610864341017132   0.624621125089187   1.0000000
B2   B   0.389116066049584   0.111490343593569   0.623985296294654   1.0000000
B2   B   0.888525657957421   0.610866637854324   0.624042231516109   1.0000000
B2   B   0.055262409822456   0.610977861864060   0.125346814153199   1.0000000
B2   B   0.722190047219227   0.111279534089902   0.624583359689250   1.0000000
B2   B   0.222329277497231   0.111211691307787   0.125390095036272   1.0000000
B2   B   0.388968457399522   0.610992499267046   0.125223684659298   1.0000000
B2   B   0.722166700785770   0.610795041783552   0.125973040688551   1.0000000
B2   B   0.555687388975642   0.111531918366708   0.126128634794274   1.0000000
B2   B   0.388968457399522   0.610992499267046   0.624776315340703   1.0000000
B2   B   0.888822983552115   0.111119416556479   0.125169463930511   1.0000000
B2   B   0.222157610873356   0.777832266075099   0.624808391596412   1.0000000
B2   B   0.055456719043620   0.277702689140043   0.624859560851785   1.0000000
B2   B   0.389162306465502   0.277845648902802   0.623397080589301   1.0000000
B2   B   0.555633566570440   0.777748614148857   0.624852274161058   1.0000000
B2   B   0.888792784148803   0.777642502702313   0.624696967166238   1.0000000
B2   B   0.722041430911301   0.277939944959467   0.623188807361324   1.0000000
B2   B   0.055400475619760   0.777720217770321   0.125256755201081   1.0000000
B2   B   0.388925827881493   0.777850245826002   0.125166616380425   1.0000000
B2   B   0.222285347743181   0.277693315591685   0.125339861575673   1.0000000
B2   B   0.722258643111542   0.777648417938615   0.125204830882971   1.0000000
B2   B   0.555712373832349   0.278112142201774   0.128677922337287   1.0000000
B2   B   0.888683296474695   0.277771558039553   0.125411078015359   1.0000000
B2   B   0.055326061230416   0.444334068313585   0.624761393237939   1.0000000
B2   B   0.222274000243254   0.944608950152284   0.624748803328401   1.0000000
B2   B   0.555628411185398   0.944646564743871   0.624752889427042   1.0000000
B2   B   0.389100529477101   0.444225841700850   0.624102832217985   1.0000000
B2   B   0.888869334889772   0.944406953630747   0.624829234266565   1.0000000
B2   B   0.055533257412744   0.944451245404749   0.125189584527952   1.0000000
B2   B   0.721868983655886   0.444253972863313   0.621385311689783   1.0000000
B2   B   0.389000367878237   0.944731772154651   0.125334715040897   1.0000000
B2   B   0.222213626873184   0.444314795558686   0.125233557058205   1.0000000
B2   B   0.222127862544628   0.611042351998813   0.125168788016894   1.0000000
B2   B   0.555715314168467   0.444138093643982   0.127436118861363   1.0000000
B2   B   0.722239481532590   0.944482824893596   0.125180129011129   1.0000000
B2   B   0.888451546524769   0.444286063525046   0.126136272113397   1.0000000
B2   B   0.055262409822456   0.610977861864060   0.624653185846801   1.0000000
B2   B   0.222329277497231   0.111211691307787   0.624609904963727   1.0000000
B2   B   0.722166700785770   0.610795041783552   0.624026959311452   1.0000000
B2   B   0.555687388975642   0.111531918366708   0.623871365205726   1.0000000
B2   B   0.888822983552115   0.111119416556479   0.624830536069490   1.0000000


