data_1
_audit_creation_method   'vasp2cif'
_cell_length_a    17.52789999999977
_cell_length_b    17.52789999999977
_cell_length_c    15.0
_cell_angle_alpha    90.0
_cell_angle_beta    90.0
_cell_angle_gamma    119.99999999999916

_symmetry_space_group_name_H-M    'P 1'
loop_
_atom_site_label
_atom_site_type_symbol
_atom_site_fract_x
_atom_site_fract_y
_atom_site_fract_z
_atom_site_occupancy
B2   B   0.905585797595410   0.953048269060333   0.119992818838507   1.0000000
B2   B   0.904640697403743   0.095516706859843   0.118771540973963   1.0000000
B2   B   0.904310140975598   0.238333951063809   0.116386703121371   1.0000000
B2   B   0.904286373935545   0.381172781861180   0.114398859176680   1.0000000
B2   B   0.904868629351582   0.524023610179602   0.113418042589259   1.0000000
B2   B   0.906087302290514   0.667168568046794   0.114141620645887   1.0000000
B2   B   0.906637348366903   0.810652159474658   0.118015501379642   1.0000000
B2   B   0.048060823662659   0.952088887163860   0.120966690859575   1.0000000
B2   B   0.047106009921852   0.094568591728074   0.120093203847196   1.0000000
B2   B   0.046868062046647   0.237658330384021   0.116658957727414   1.0000000
B2   B   0.047112305756682   0.380752457513774   0.114008413097340   1.0000000
B2   B   0.047756163562191   0.523631936399394   0.113173224720157   1.0000000
B2   B   0.048422574731140   0.666492844398104   0.114725527114729   1.0000000
B2   B   0.048541611785293   0.809397806456153   0.118169057378312   1.0000000
B2   B   0.190753046295957   0.951606139404941   0.118237473485383   1.0000000
B2   B   0.189501520871233   0.093509220142933   0.118179540630402   1.0000000
B2   B   0.188435158609222   0.235756688036730   0.113874827952526   1.0000000
B2   B   0.189348483159711   0.379881869309738   0.110972864476841   1.0000000
B2   B   0.190607760663107   0.523199103430358   0.110585087124406   1.0000000
B2   B   0.191252503133032   0.666147684455723   0.111871277860119   1.0000000
B2   B   0.191161778028829   0.808984746049881   0.115043068402850   1.0000000
B2   B   0.333655398719186   0.951718702675922   0.114774204849881   1.0000000
B2   B   0.332994809358918   0.094060554837287   0.114307470771249   1.0000000
B2   B   0.330276247015604   0.234217725876157   0.106607681680498   1.0000000
B2   B   0.328789661117116   0.376188989636507   0.099110145231991   1.0000000
B2   B   0.333343688771230   0.522134068133715   0.105174833812554   1.0000000
B2   B   0.334391779446994   0.665762235392018   0.108781435521129   1.0000000
B2   B   0.333992257142103   0.808889600259978   0.111837763648973   1.0000000
B2   B   0.476521993006742   0.952392789330948   0.113146674434380   1.0000000
B2   B   0.476134837381803   0.095276667365240   0.113513944434953   1.0000000
B2   B   0.475321373790189   0.237773308139963   0.106878245125723   1.0000000
B2   B   0.468931492445516   0.372555682764197   0.077940382295516   1.0000000
B2   B   0.478015696534351   0.666801384959823   0.105136528586192   1.0000000
B2   B   0.476956257435341   0.809542444275865   0.110512947393524   1.0000000
B2   B   0.619404395055494   0.953038789771871   0.113942582114580   1.0000000
B2   B   0.618987013364012   0.095864003851710   0.114434705670886   1.0000000
B2   B   0.618612742773709   0.238953877570931   0.111028362188667   1.0000000
B2   B   0.618038731471728   0.382104121137292   0.099854384762946   1.0000000
B2   B   0.627564303802682   0.531199541679323   0.077887849958367   1.0000000
B2   B   0.623949020906729   0.671346660668248   0.099016601842234   1.0000000
B2   B   0.620273354876247   0.810801298902763   0.110849430396052   1.0000000
B2   B   0.762502665798591   0.953291432208242   0.116536290035941   1.0000000
B2   B   0.761820250662116   0.095845526306609   0.116373554591906   1.0000000
B2   B   0.761477853186876   0.238687971572109   0.114665896866168   1.0000000
B2   B   0.761197020057659   0.381547194584483   0.110969091107898   1.0000000
B2   B   0.762374625068241   0.524835577763994   0.106726062920354   1.0000000
B2   B   0.765929441940091   0.669878419845867   0.106423159505045   1.0000000
B2   B   0.764394557438940   0.811718304843759   0.113683739284444   1.0000000
N2   N   0.953289309588725   0.905397369889883   0.120832468155305   1.0000000
N2   N   0.952301962845146   0.047851199044035   0.120523992999641   1.0000000
N2   N   0.951866440159262   0.190585322324688   0.117703073337214   1.0000000
N2   N   0.951906388285941   0.333481614339700   0.115187063455634   1.0000000
N2   N   0.952398473816286   0.476323949272905   0.113899298409472   1.0000000
N2   N   0.953210430534304   0.619194547943373   0.114531651218688   1.0000000
N2   N   0.953566012149936   0.762309500202219   0.117482826926524   1.0000000
N2   N   0.095724639326002   0.904425144968332   0.119934955379380   1.0000000
N2   N   0.094753931939080   0.046860043780386   0.120934418491216   1.0000000
N2   N   0.093915712399541   0.189408407819721   0.117761250923271   1.0000000
N2   N   0.094418132709440   0.332829062107072   0.114207775113028   1.0000000
N2   N   0.095280143169285   0.475918581593559   0.112458713881060   1.0000000
N2   N   0.095938174975907   0.618793529870699   0.113087946150235   1.0000000
N2   N   0.096029445411740   0.761635865890887   0.116149780170964   1.0000000
N2   N   0.238512934869363   0.904115849960083   0.116188571672223   1.0000000
N2   N   0.237849364551173   0.046582803536083   0.117631058604137   1.0000000
N2   N   0.235934213292166   0.188030748387434   0.114404355914141   1.0000000
N2   N   0.235278768944322   0.330557245462026   0.109221562543474   1.0000000
N2   N   0.237908627295425   0.475249936083352   0.109092704933921   1.0000000
N2   N   0.238941953025022   0.618454070154056   0.110065109459074   1.0000000
N2   N   0.238796722529785   0.761348475073579   0.112540580498785   1.0000000
N2   N   0.381356572134805   0.904207810185748   0.113060812682281   1.0000000
N2   N   0.380960882503357   0.046931928184733   0.114645246165675   1.0000000
N2   N   0.379960805145514   0.188958049349464   0.109389047974692   1.0000000
N2   N   0.375738882295057   0.327733152246054   0.093279264185666   1.0000000
N2   N   0.377468037478632   0.471215908057436   0.098205479577599   1.0000000
N2   N   0.382280225150854   0.617870122530550   0.106073582879229   1.0000000
N2   N   0.381698638652455   0.761210529436923   0.110018960089803   1.0000000
N2   N   0.524236237556468   0.904870193655591   0.112388440033236   1.0000000
N2   N   0.523833272622501   0.047748827626655   0.113931220096921   1.0000000
N2   N   0.523348170916893   0.190694636060175   0.111343299435933   1.0000000
N2   N   0.522164929987551   0.333352450828007   0.097059165277791   1.0000000
N2   N   0.528924218927755   0.622665653500138   0.098164948287195   1.0000000
N2   N   0.524904097787741   0.762239906916220   0.109010965589235   1.0000000
N2   N   0.667329489280141   0.905735116698179   0.114081787117428   1.0000000
N2   N   0.666674174774496   0.048243403744447   0.115182832793419   1.0000000
N2   N   0.666276137114187   0.191201954879276   0.113919217756856   1.0000000
N2   N   0.665748349600283   0.334401091009720   0.107940165935825   1.0000000
N2   N   0.666788956838626   0.477978580487337   0.096960881595593   1.0000000
N2   N   0.672404924709968   0.624400820039523   0.093159861825413   1.0000000
N2   N   0.669591905221373   0.764867327571581   0.109076552997602   1.0000000
N2   N   0.810746537714413   0.906239037233812   0.117585175929348   1.0000000
N2   N   0.809571688809014   0.048290313057164   0.117653805175395   1.0000000
N2   N   0.809154430043620   0.191001295560790   0.116189132615259   1.0000000
N2   N   0.808951373542747   0.333885920578738   0.113870093919996   1.0000000
N2   N   0.809452056547417   0.476809953197664   0.111216268745171   1.0000000
N2   N   0.811191239073312   0.620198506309103   0.109190994552300   1.0000000
N2   N   0.812119341758564   0.764221510182732   0.114182934097506   1.0000000
Si2   Si   0.487959153709260   0.512155428086543   0.072827952389566   1.0000000


