data_1
_audit_creation_method   'vasp2cif'
_cell_length_a    17.52789999999977
_cell_length_b    17.52789999999977
_cell_length_c    15.0
_cell_angle_alpha    90.0
_cell_angle_beta    90.0
_cell_angle_gamma    119.99999999999916

_symmetry_space_group_name_H-M    'P 1'
loop_
_atom_site_label
_atom_site_type_symbol
_atom_site_fract_x
_atom_site_fract_y
_atom_site_fract_z
_atom_site_occupancy
B2   B   0.904571829067983   0.952257258451790   0.111013625988762   1.0000000
B2   B   0.904816533347254   0.095185213344746   0.111055697771602   1.0000000
B2   B   0.904590280413586   0.237856746811911   0.111044779775703   1.0000000
B2   B   0.904530832413195   0.380792555095985   0.110998224272216   1.0000000
B2   B   0.904542440291152   0.523829448823942   0.110986173208733   1.0000000
B2   B   0.904818592997922   0.666692896195645   0.111049516729901   1.0000000
B2   B   0.904701924930147   0.809676751653382   0.111053038676772   1.0000000
B2   B   0.047512644001883   0.952489079363113   0.110999738937561   1.0000000
B2   B   0.047744456890212   0.095429891404023   0.111013625515761   1.0000000
B2   B   0.047788218701300   0.238199605783663   0.111012411139550   1.0000000
B2   B   0.047528545522866   0.380796080187645   0.111019773386659   1.0000000
B2   B   0.047366683815918   0.522992216063580   0.111002843654986   1.0000000
B2   B   0.047328541549307   0.666650539478126   0.111018980115754   1.0000000
B2   B   0.047464417296080   0.809751329890516   0.110986529535985   1.0000000
B2   B   0.190250419802482   0.952537345796931   0.110986528009988   1.0000000
B2   B   0.190324949382616   0.095299787777859   0.111053034552775   1.0000000
B2   B   0.191299053373620   0.239015456073592   0.111025836978789   1.0000000
B2   B   0.190526778568919   0.381259966534883   0.110991511589980   1.0000000
B2   B   0.190018795520514   0.522437134957643   0.111046463046484   1.0000000
B2   B   0.190681439447931   0.666881986553995   0.111063074569847   1.0000000
B2   B   0.190545351715165   0.809456342825833   0.110990624244794   1.0000000
B2   B   0.333351196226873   0.952673182284697   0.111018982529752   1.0000000
B2   B   0.333308817781355   0.095183146922080   0.111049512352901   1.0000000
B2   B   0.333026275542575   0.237464984464365   0.111068057701809   1.0000000
B2   B   0.335093307825203   0.381384492947693   0.111022602145661   1.0000000
B2   B   0.334215902600649   0.525484362745739   0.111047400891960   1.0000000
B2   B   0.333669717315155   0.666331985458845   0.111086574039035   1.0000000
B2   B   0.333119666766003   0.809320189395064   0.111063078102850   1.0000000
B2   B   0.477009471355421   0.952634897114078   0.111002848965987   1.0000000
B2   B   0.476172292682062   0.095459382384845   0.110986181901734   1.0000000
B2   B   0.476020692106327   0.238473286908729   0.111045111631799   1.0000000
B2   B   0.475060707776478   0.380700377868295   0.111054136972566   1.0000000
B2   B   0.474517421687257   0.665785954739354   0.111047401405966   1.0000000
B2   B   0.477564580832356   0.809982891547486   0.111046468783484   1.0000000
B2   B   0.619205658784364   0.952473138894135   0.111019775493660   1.0000000
B2   B   0.619209115252014   0.095470854868807   0.110998225358217   1.0000000
B2   B   0.619058369472541   0.238332286388222   0.111008491590508   1.0000000
B2   B   0.618838270287924   0.381163463921076   0.111018382207956   1.0000000
B2   B   0.619301191101704   0.524940959426523   0.111054131714564   1.0000000
B2   B   0.618617156507301   0.664908415890794   0.111022601858659   1.0000000
B2   B   0.618741776625115   0.809474990834080   0.110991507241977   1.0000000
B2   B   0.761802134744337   0.952213500825699   0.111012413365546   1.0000000
B2   B   0.762144948949089   0.095411396120412   0.111044782178701   1.0000000
B2   B   0.761880072651992   0.238121632528005   0.111056385028844   1.0000000
B2   B   0.761669535995779   0.380943385958459   0.111008483183509   1.0000000
B2   B   0.761528465267268   0.523980990700683   0.111045103667801   1.0000000
B2   B   0.762536674306633   0.666975405002423   0.111068066329809   1.0000000
B2   B   0.760986215350410   0.808702663308381   0.111025839452785   1.0000000
C2   C   0.476317585510810   0.523684070036186   0.111055523004899   1.0000000
N2   N   0.952290546195074   0.904725126613567   0.111005534917380   1.0000000
N2   N   0.952401628140826   0.047600089169172   0.111010750966175   1.0000000
N2   N   0.952423781902699   0.190518156844170   0.111035284414435   1.0000000
N2   N   0.952228920728151   0.333318543512054   0.111013805998699   1.0000000
N2   N   0.952356645498473   0.476233907305561   0.110952080009062   1.0000000
N2   N   0.952342357267585   0.619031842018665   0.111004204426703   1.0000000
N2   N   0.952393916947627   0.761873720903347   0.111023800289788   1.0000000
N2   N   0.095209059874550   0.904792692593452   0.110955029393191   1.0000000
N2   N   0.095276578824435   0.047711172619926   0.111005541414376   1.0000000
N2   N   0.095823550744516   0.191089683013082   0.110992759430557   1.0000000
N2   N   0.095500594424855   0.333546708087451   0.110993101511681   1.0000000
N2   N   0.094966418407546   0.475813179020076   0.111006963970667   1.0000000
N2   N   0.095412281845934   0.618985007672614   0.111016493132716   1.0000000
N2   N   0.095334960654308   0.761820316642306   0.110973796016815   1.0000000
N2   N   0.238181395518695   0.904666750103692   0.110973796908816   1.0000000
N2   N   0.238128008473658   0.047607852016370   0.111023792866791   1.0000000
N2   N   0.238266241186312   0.190668941222769   0.111048353540507   1.0000000
N2   N   0.239817943552255   0.334770456032939   0.110981615247520   1.0000000
N2   N   0.238183525187192   0.476055622010589   0.111001751424915   1.0000000
N2   N   0.238299239273819   0.619016166604865   0.111058812586170   1.0000000
N2   N   0.238145346307388   0.761856287887607   0.111024443421465   1.0000000
N2   N   0.381016663430386   0.904589343937065   0.111016497282719   1.0000000
N2   N   0.380969885168332   0.047659393652414   0.111004212174703   1.0000000
N2   N   0.381022115966063   0.190578250803518   0.111044965582782   1.0000000
N2   N   0.381174967724251   0.333224496616203   0.111041389323374   1.0000000
N2   N   0.386623526879269   0.478223251024101   0.111008274115317   1.0000000
N2   N   0.381104894597880   0.618896903361121   0.111036915505685   1.0000000
N2   N   0.380985571884132   0.761702467606180   0.111058817207171   1.0000000
N2   N   0.524188553207924   0.905035177108450   0.111006977748666   1.0000000
N2   N   0.523767751043439   0.047645016261529   0.110952080454068   1.0000000
N2   N   0.523697274030420   0.190808347014683   0.110995895647740   1.0000000
N2   N   0.523567319785247   0.334490772660037   0.111025659820432   1.0000000
N2   N   0.521644967033915   0.478356629591090   0.111039316432611   1.0000000
N2   N   0.521778408258900   0.613378155259732   0.111008275693318   1.0000000
N2   N   0.523946160602415   0.761818331140813   0.111001748608913   1.0000000
N2   N   0.666455082524546   0.904501153048146   0.110993099298682   1.0000000
N2   N   0.666683126218937   0.047772733520853   0.111013804530704   1.0000000
N2   N   0.666587347726921   0.190699310097421   0.111019138404599   1.0000000
N2   N   0.666331132712851   0.333670677836151   0.110988067391954   1.0000000
N2   N   0.665510891471957   0.476434396224750   0.111025639421432   1.0000000
N2   N   0.666777134027798   0.618826726820748   0.111041391958372   1.0000000
N2   N   0.665231210421058   0.760183813915744   0.110981608116520   1.0000000
N2   N   0.808912029502921   0.904178164289487   0.110992759806561   1.0000000
N2   N   0.809483568432832   0.047577927170298   0.111035294101435   1.0000000
N2   N   0.809469228343058   0.190532426348941   0.111038005304604   1.0000000
N2   N   0.809302428010576   0.333414337434082   0.111019132464604   1.0000000
N2   N   0.809193544540318   0.476304480419584   0.110995875136738   1.0000000
N2   N   0.809423470563481   0.618979588080938   0.111044980935785   1.0000000
N2   N   0.809332720871231   0.761735450597695   0.111048364836502   1.0000000


