data_1
_audit_creation_method   'vasp2cif'
_cell_length_a    17.52789999999977
_cell_length_b    17.52789999999977
_cell_length_c    15.0
_cell_angle_alpha    90.0
_cell_angle_beta    90.0
_cell_angle_gamma    119.99999999999916

_symmetry_space_group_name_H-M    'P 1'
loop_
_atom_site_label
_atom_site_type_symbol
_atom_site_fract_x
_atom_site_fract_y
_atom_site_fract_z
_atom_site_occupancy
B2   B   0.905234476091355   0.952465716260244   0.107216553414098   1.0000000
B2   B   0.904893230257508   0.095108516434481   0.107301276296552   1.0000000
B2   B   0.904808603634275   0.237966068330566   0.108056738391669   1.0000000
B2   B   0.904871832868291   0.380904880577664   0.108022911432488   1.0000000
B2   B   0.905188399053217   0.523869861726167   0.108223941757760   1.0000000
B2   B   0.905397614723823   0.666873004715467   0.108179002804476   1.0000000
B2   B   0.905503451387094   0.809763173865949   0.107913286642824   1.0000000
B2   B   0.047808804989372   0.952192918375613   0.108635701083290   1.0000000
B2   B   0.047535999081747   0.094767244380655   0.107216552941097   1.0000000
B2   B   0.047386863850005   0.237618310567411   0.107020564833873   1.0000000
B2   B   0.047391649754594   0.380915176024153   0.107364662111121   1.0000000
B2   B   0.047499158046559   0.523926202356082   0.107789284434471   1.0000000
B2   B   0.047789962202926   0.666783463817115   0.108935361349205   1.0000000
B2   B   0.047912885787790   0.809559550953251   0.109372880334781   1.0000000
B2   B   0.190442198739749   0.952088877305236   0.109372878808784   1.0000000
B2   B   0.190238527170036   0.094498261320901   0.107913282518827   1.0000000
B2   B   0.189754354339868   0.236794340901905   0.107692042439073   1.0000000
B2   B   0.189588627503412   0.380299367259506   0.110198067710601   1.0000000
B2   B   0.189705119903811   0.524152040571482   0.108781754445009   1.0000000
B2   B   0.190318018699375   0.666908560979997   0.108447905123312   1.0000000
B2   B   0.190445642102908   0.809556052438075   0.109352255516291   1.0000000
B2   B   0.333218271887880   0.952211761631101   0.108935363763203   1.0000000
B2   B   0.333128709261534   0.094604125196226   0.108178998427476   1.0000000
B2   B   0.332752149395978   0.236835117498396   0.106125955623526   1.0000000
B2   B   0.331895658896684   0.378132086568652   0.116405763310757   1.0000000
B2   B   0.331424612393569   0.524369264668548   0.118306959209137   1.0000000
B2   B   0.333009046524859   0.666992656249117   0.108087106675763   1.0000000
B2   B   0.333093092340042   0.809683610143623   0.108447908656315   1.0000000
B2   B   0.476075485062915   0.952502422883416   0.107789289745473   1.0000000
B2   B   0.476131879779880   0.094813423622808   0.108223950450760   1.0000000
B2   B   0.476001579074258   0.236873933156874   0.108060934898639   1.0000000
B2   B   0.475295760113016   0.378388993401206   0.108898241355915   1.0000000
B2   B   0.475632519764440   0.668577244946437   0.118306959723144   1.0000000
B2   B   0.475849675218509   0.810296567164218   0.108781760182009   1.0000000
B2   B   0.619086562947833   0.952610034662397   0.107364664218122   1.0000000
B2   B   0.619096789770341   0.095129854413731   0.108022912518489   1.0000000
B2   B   0.619193624562817   0.237698206912617   0.108270432381361   1.0000000
B2   B   0.619578214889807   0.380423519319192   0.108355379740106   1.0000000
B2   B   0.621612575568806   0.524705907090001   0.108898236097913   1.0000000
B2   B   0.621869562886342   0.668106064819325   0.116405763023754   1.0000000
B2   B   0.619702375900480   0.810413141899594   0.110198063362598   1.0000000
B2   B   0.762383429960584   0.952614855677012   0.107020567059868   1.0000000
B2   B   0.762035627430436   0.095193072899734   0.108056740794667   1.0000000
B2   B   0.762055801313799   0.237945903866202   0.108672704183696   1.0000000
B2   B   0.762303615471383   0.380808130868223   0.108270423974362   1.0000000
B2   B   0.763127819019131   0.524000103732753   0.108060926934642   1.0000000
B2   B   0.763166541272627   0.667249531149007   0.106125964251526   1.0000000
B2   B   0.763207330522124   0.810247362342172   0.107692044913069   1.0000000
Sn2   Sn   0.465764522920008   0.534237132626979   0.265667965768922   1.0000000
N2   N   0.952600358994721   0.904733338399556   0.108065119369084   1.0000000
N2   N   0.952495723981530   0.047505993328477   0.107087567672654   1.0000000
N2   N   0.952505161716779   0.190353536706536   0.107426977911735   1.0000000
N2   N   0.952535833682787   0.333265095416961   0.107748621393777   1.0000000
N2   N   0.952539440008510   0.476138856393572   0.107823292838057   1.0000000
N2   N   0.952609348607935   0.619060771881582   0.108636056227008   1.0000000
N2   N   0.952648912834295   0.761937156749741   0.108645453950293   1.0000000
N2   N   0.095339773798413   0.904661978669577   0.109471342056244   1.0000000
N2   N   0.095268367038443   0.047401359820270   0.108065125866080   1.0000000
N2   N   0.095118041749638   0.190135789064479   0.106847046639740   1.0000000
N2   N   0.095323005052687   0.333227262074806   0.107296911739592   1.0000000
N2   N   0.095150128369778   0.476182885886445   0.107515331664448   1.0000000
N2   N   0.095361545209946   0.619068041671320   0.108448130813751   1.0000000
N2   N   0.095359571381500   0.761879806027185   0.109493935377710   1.0000000
N2   N   0.238121906133810   0.904642139376503   0.109493936269712   1.0000000
N2   N   0.238064572627270   0.047352856129698   0.108645446527296   1.0000000
N2   N   0.237932798706072   0.190053829144908   0.107011690333922   1.0000000
N2   N   0.237579414197075   0.332645693138423   0.110610844450638   1.0000000
N2   N   0.237524297814913   0.476117409357557   0.111393484353034   1.0000000
N2   N   0.238196619717332   0.619088266450210   0.108136950350000   1.0000000
N2   N   0.238117495405335   0.761884138789684   0.108799587891550   1.0000000
N2   N   0.380933629431687   0.904640080573052   0.108448134963753   1.0000000
N2   N   0.380940955305424   0.047392402312084   0.108636063975008   1.0000000
N2   N   0.380821009228461   0.190098746223421   0.107033674541580   1.0000000
N2   N   0.380533837383716   0.332953358390626   0.107418969404224   1.0000000
N2   N   0.372269926683598   0.471494443165338   0.141409902069881   1.0000000
N2   N   0.381212839109054   0.618788958849937   0.111285314086718   1.0000000
N2   N   0.380913472038777   0.761805087162658   0.108136954971000   1.0000000
N2   N   0.523818846341579   0.904851467146221   0.107515345442447   1.0000000
N2   N   0.523862801955427   0.047462221751481   0.107823293283062   1.0000000
N2   N   0.523884924522679   0.190029609245141   0.108276343090535   1.0000000
N2   N   0.523981274154817   0.332290801755288   0.108280424579707   1.0000000
N2   N   0.528654871355215   0.471346725269792   0.119899730892707   1.0000000
N2   N   0.528507216117663   0.627731755455381   0.141409903647883   1.0000000
N2   N   0.523884373255460   0.762477558513071   0.111393481537032   1.0000000
N2   N   0.666774528537197   0.904678742420319   0.107296909526592   1.0000000
N2   N   0.666736574314022   0.047465820566216   0.107748619925782   1.0000000
N2   N   0.666800693457590   0.190285222074861   0.108481081657193   1.0000000
N2   N   0.666913145114111   0.333088665434898   0.108096831772582   1.0000000
N2   N   0.667710862376720   0.476020441855208   0.108280404180707   1.0000000
N2   N   0.667048272253376   0.619467857161262   0.107418972039222   1.0000000
N2   N   0.667355973315598   0.762422343270890   0.110610837319631   1.0000000
N2   N   0.809865923451554   0.904883673284364   0.106847047015745   1.0000000
N2   N   0.809648188570482   0.047496547356201   0.107426987598734   1.0000000
N2   N   0.809669550215838   0.190332104476147   0.108680243325929   1.0000000
N2   N   0.809716516033116   0.333200991703431   0.108481075717198   1.0000000
N2   N   0.809972282309864   0.476116829927336   0.108276322579532   1.0000000
N2   N   0.809902975143556   0.619180694818546   0.107033689894583   1.0000000
N2   N   0.809947832949091   0.762068893077918   0.107011701629918   1.0000000


