data_1
_audit_creation_method   'vasp2cif'
_cell_length_a    17.52789999999977
_cell_length_b    17.52789999999977
_cell_length_c    15.0
_cell_angle_alpha    90.0
_cell_angle_beta    90.0
_cell_angle_gamma    119.99999999999916

_symmetry_space_group_name_H-M    'P 1'
loop_
_atom_site_label
_atom_site_type_symbol
_atom_site_fract_x
_atom_site_fract_y
_atom_site_fract_z
_atom_site_occupancy
B2   B   0.906748049806918   0.954073837796520   0.110988577182575   1.0000000
B2   B   0.904498329770968   0.095503691425013   0.111012147955009   1.0000000
B2   B   0.903781624490433   0.237859636101465   0.111055981138863   1.0000000
B2   B   0.904466322869041   0.380806911477762   0.110935334250364   1.0000000
B2   B   0.906815149010042   0.524196418451302   0.111015422704669   1.0000000
B2   B   0.907398796837441   0.667764603822690   0.111106609293251   1.0000000
B2   B   0.908249300616551   0.811767285155549   0.111039392452586   1.0000000
B2   B   0.048195311375625   0.951806709820376   0.111025124292003   1.0000000
B2   B   0.045928183399446   0.093253971389050   0.110988577182575   1.0000000
B2   B   0.044813899557331   0.236106474801027   0.110923739364980   1.0000000
B2   B   0.045276401268519   0.379976245275834   0.110888168079939   1.0000000
B2   B   0.046876766079487   0.523767244872826   0.110946840255406   1.0000000
B2   B   0.048820383958522   0.666832577402613   0.111072778510825   1.0000000
B2   B   0.049011260495005   0.809545942329279   0.111085831894890   1.0000000
B2   B   0.190456078866766   0.950990760701010   0.111085831894890   1.0000000
B2   B   0.188234736040463   0.091752720579467   0.111039392452586   1.0000000
B2   B   0.184516761508455   0.232074654123951   0.110863026041690   1.0000000
B2   B   0.184900899129632   0.377216436616617   0.110831161439606   1.0000000
B2   B   0.186348573213104   0.523172010117698   0.110901287381629   1.0000000
B2   B   0.190849621959917   0.666527351252277   0.111026421822494   1.0000000
B2   B   0.191013958232507   0.808988062963490   0.111028190483927   1.0000000
B2   B   0.333169443794360   0.951181637237463   0.111072778510825   1.0000000
B2   B   0.332237417374312   0.092603224358575   0.111106609293251   1.0000000
B2   B   0.327762533828422   0.231377113107475   0.110975686243491   1.0000000
B2   B   0.321765536639498   0.370119719390233   0.111071629410596   1.0000000
B2   B   0.322574932552601   0.519137420293938   0.111198577180978   1.0000000
B2   B   0.333690782580409   0.666311238616604   0.111060088430286   1.0000000
B2   B   0.333474669944650   0.809152399236089   0.111026421822494   1.0000000
B2   B   0.476234776324120   0.953125255116469   0.110946840255406   1.0000000
B2   B   0.475805602745746   0.093186872185960   0.111015422704669   1.0000000
B2   B   0.475422372796010   0.232500066866915   0.111045772178373   1.0000000
B2   B   0.466082418367083   0.361609913402687   0.111637200791243   1.0000000
B2   B   0.480864600903054   0.677427088644399   0.111198577180978   1.0000000
B2   B   0.476830011079302   0.813653447982889   0.110901287381629   1.0000000
B2   B   0.620025775920160   0.954725619927509   0.110888168079939   1.0000000
B2   B   0.619195109718234   0.095535698326951   0.110935334250364   1.0000000
B2   B   0.619205967425612   0.236910152858437   0.110939770551690   1.0000000
B2   B   0.620543261468597   0.379458759727383   0.111104346361341   1.0000000
B2   B   0.638392107793380   0.533919602829872   0.111637200791243   1.0000000
B2   B   0.629882301805785   0.678236484557462   0.111071629410596   1.0000000
B2   B   0.622785584579371   0.815101122066370   0.110831161439606   1.0000000
B2   B   0.763895546394981   0.955188121638666   0.110923739364980   1.0000000
B2   B   0.762142385094530   0.096220396705601   0.111055981138863   1.0000000
B2   B   0.761912588730427   0.238089432465604   0.111064096686085   1.0000000
B2   B   0.763091868337568   0.380796053770380   0.110939770551690   1.0000000
B2   B   0.767501954329041   0.524579648401011   0.111045772178373   1.0000000
B2   B   0.768624908088524   0.672239487368559   0.110975686243491   1.0000000
B2   B   0.767927367072015   0.815485259687536   0.110863026041690   1.0000000
N2   N   0.954114674268781   0.906083509240665   0.110989363474758   1.0000000
N2   N   0.952083456445176   0.047917945472836   0.110962865381197   1.0000000
N2   N   0.950709053070859   0.189915650363942   0.110973881983220   1.0000000
N2   N   0.950989990420320   0.332724831257251   0.110896828528247   1.0000000
N2   N   0.952726813635824   0.475936994217709   0.110906295232192   1.0000000
N2   N   0.954260242488208   0.619472912118164   0.111072592478954   1.0000000
N2   N   0.954632887156749   0.762901338124208   0.111095378788399   1.0000000
N2   N   0.095798021880655   0.904203380037351   0.111021127312917   1.0000000
N2   N   0.093917892677301   0.045886727649231   0.110989363474758   1.0000000
N2   N   0.090921367888347   0.187055584538485   0.110916078618308   1.0000000
N2   N   0.091056888774328   0.330961815359426   0.110862000090710   1.0000000
N2   N   0.092435117819857   0.475306449436308   0.110880403896226   1.0000000
N2   N   0.095825885565801   0.618953576034886   0.111005426664077   1.0000000
N2   N   0.096298283617122   0.761763423859600   0.111033503804858   1.0000000
N2   N   0.238237978058399   0.903703118300904   0.111033503804858   1.0000000
N2   N   0.237100063793840   0.045368514761192   0.111095378788399   1.0000000
N2   N   0.233372860221164   0.185441255707723   0.110922129748117   1.0000000
N2   N   0.228469539310628   0.325439076412505   0.110755809761193   1.0000000
N2   N   0.229698211196143   0.473324601402952   0.110816672338602   1.0000000
N2   N   0.237961357382970   0.618660243672051   0.110987949879551   1.0000000
N2   N   0.238499874855157   0.761501527062875   0.111013930577820   1.0000000
N2   N   0.381047825883111   0.904175516352183   0.111005426664077   1.0000000
N2   N   0.380528489799856   0.045741159429783   0.111072592478954   1.0000000
N2   N   0.379092658603724   0.186706129673258   0.111034745795701   1.0000000
N2   N   0.371946964822138   0.324619338785437   0.111071352683246   1.0000000
N2   N   0.356951218048480   0.461985495659227   0.111485112240163   1.0000000
N2   N   0.381749182781773   0.618252219136228   0.111101205724561   1.0000000
N2   N   0.381341158245981   0.762040044535029   0.110987949879551   1.0000000
N2   N   0.524694952480646   0.907566284098123   0.110880403896226   1.0000000
N2   N   0.524064407699304   0.047274588282170   0.110906295232192   1.0000000
N2   N   0.523973750999979   0.187096848561165   0.110958971417914   1.0000000
N2   N   0.523906323821930   0.325470183412249   0.111173097826625   1.0000000
N2   N   0.538015906257809   0.643050183869532   0.111485112240163   1.0000000
N2   N   0.526676800514058   0.770303190721842   0.110816672338602   1.0000000
N2   N   0.669039586557563   0.908944513143709   0.110862000090710   1.0000000
N2   N   0.667276570659739   0.049011411497700   0.110896828528247   1.0000000
N2   N   0.667012288825812   0.190234769828485   0.110941566393625   1.0000000
N2   N   0.667755118849021   0.332246283068001   0.110920527181813   1.0000000
N2   N   0.674531218504742   0.476095078095075   0.111173097826625   1.0000000
N2   N   0.675382063131552   0.628054437095841   0.111071352683246   1.0000000
N2   N   0.674562325504493   0.771531862607441   0.110755809761193   1.0000000
N2   N   0.812945817379498   0.909080034029642   0.110916078618308   1.0000000
N2   N   0.810085751554044   0.049292348847095   0.110973881983220   1.0000000
N2   N   0.809236840520149   0.190764561397893   0.111171573749564   1.0000000
N2   N   0.809766632089500   0.332989113091176   0.110941566393625   1.0000000
N2   N   0.812904553356876   0.476027650917044   0.110958971417914   1.0000000
N2   N   0.813295272244763   0.620908743314273   0.111034745795701   1.0000000
N2   N   0.814560146210236   0.766628541696841   0.110922129748117   1.0000000
Al2   Al   0.462514093048092   0.537487928148886   0.111508560095868   1.0000000
S2   S   0.527873253196367   0.472128148720627   0.111309476137978   1.0000000


