data_1
_audit_creation_method   'vasp2cif'
_cell_length_a    14.93631414619966
_cell_length_b    14.936314146199727
_cell_length_c    13.341276283792837
_cell_angle_alpha    90.0
_cell_angle_beta    90.0
_cell_angle_gamma    119.99999999999984

_symmetry_space_group_name_H-M    'P 1'
loop_
_atom_site_label
_atom_site_type_symbol
_atom_site_fract_x
_atom_site_fract_y
_atom_site_fract_z
_atom_site_occupancy
N2   N   0.111109176363192   0.055550737243884   0.125027313636417   1.0000000
N2   N   0.611145812887263   0.555624959107854   0.124795715768207   1.0000000
N2   N   0.444441300868617   0.055543294065007   0.125020245989703   1.0000000
N2   N   0.944456705934993   0.555558699131383   0.125020245989703   1.0000000
N2   N   0.777775130057035   0.055554231695185   0.125035324618680   1.0000000
N2   N   0.111112071582072   0.722222702457700   0.624978370208036   1.0000000
N2   N   0.444441300868617   0.722231340136946   0.624979754010297   1.0000000
N2   N   0.277752706978917   0.222202630282338   0.624929152922304   1.0000000
N2   N   0.777797369717662   0.722247293021083   0.624929152922304   1.0000000
N2   N   0.611116589970093   0.222202630282338   0.624929152922304   1.0000000
N2   N   0.944445768304814   0.222224869942965   0.624964675381320   1.0000000
N2   N   0.277777297542300   0.722222702457700   0.125021629791964   1.0000000
N2   N   0.111105665379627   0.222219499356478   0.125034635525335   1.0000000
N2   N   0.444428972541172   0.222191278415679   0.125090585975459   1.0000000
N2   N   0.611116589970093   0.722247293021083   0.125070847077696   1.0000000
N2   N   0.944456705934993   0.722231340136946   0.125020245989703   1.0000000
N2   N   0.777780500643522   0.222219499356478   0.125034635525335   1.0000000
N2   N   0.111111239434517   0.888888760565483   0.624980557897388   1.0000000
N2   N   0.444444187797637   0.888888760565483   0.624980557897388   1.0000000
N2   N   0.277752706978917   0.388883410029907   0.624929152922304   1.0000000
N2   N   0.611145812887263   0.388854187112737   0.625204284231793   1.0000000
N2   N   0.777780500643522   0.888894334620373   0.624965364474672   1.0000000
N2   N   0.944449262756116   0.388891772452630   0.624972686363583   1.0000000
N2   N   0.111109176363192   0.388891772452630   0.125027313636417   1.0000000
N2   N   0.277777297542300   0.888887928417928   0.125021629791964   1.0000000
N2   N   0.611108227547370   0.888890823636808   0.125027313636417   1.0000000
N2   N   0.444375040892146   0.388854187112737   0.124795715768207   1.0000000
N2   N   0.944449262756116   0.888890823636808   0.125027313636417   1.0000000
N2   N   0.777797369717662   0.388883410029907   0.125070847077696   1.0000000
N2   N   0.277768659863047   0.555558699131383   0.624979754010297   1.0000000
N2   N   0.111109176363192   0.055550737243884   0.624972686363583   1.0000000
N2   N   0.611145812887263   0.555624959107854   0.625204284231793   1.0000000
N2   N   0.444441300868617   0.055543294065007   0.624979754010297   1.0000000
N2   N   0.944456705934993   0.555558699131383   0.624979754010297   1.0000000
N2   N   0.111111239434517   0.555555812202363   0.125019442102612   1.0000000
N2   N   0.777775130057035   0.055554231695185   0.624964675381320   1.0000000
N2   N   0.277768659863047   0.055543294065007   0.125020245989703   1.0000000
N2   N   0.444428972541172   0.555571027458828   0.125090585975459   1.0000000
N2   N   0.777808721584321   0.555571027458828   0.125090585975459   1.0000000
N2   N   0.611108227547370   0.055550737243884   0.125027313636417   1.0000000
N2   N   0.444428972541172   0.555571027458828   0.624909414024541   1.0000000
N2   N   0.944445768304814   0.055554231695185   0.125035324618680   1.0000000
N2   N   0.277777297542300   0.722222702457700   0.624978370208036   1.0000000
N2   N   0.111105665379627   0.222219499356478   0.624965364474672   1.0000000
N2   N   0.444428972541172   0.222191278415679   0.624909414024541   1.0000000
N2   N   0.611116589970093   0.722247293021083   0.624929152922304   1.0000000
N2   N   0.944456705934993   0.722231340136946   0.624979754010297   1.0000000
N2   N   0.777780500643522   0.222219499356478   0.624965364474672   1.0000000
N2   N   0.111112071582072   0.722222702457700   0.125021629791964   1.0000000
N2   N   0.444441300868617   0.722231340136946   0.125020245989703   1.0000000
N2   N   0.277752706978917   0.222202630282338   0.125070847077696   1.0000000
N2   N   0.777797369717662   0.722247293021083   0.125070847077696   1.0000000
N2   N   0.611116589970093   0.222202630282338   0.125070847077696   1.0000000
N2   N   0.944445768304814   0.222224869942965   0.125035324618680   1.0000000
N2   N   0.111109176363192   0.388891772452630   0.624972686363583   1.0000000
N2   N   0.277777297542300   0.888887928417928   0.624978370208036   1.0000000
N2   N   0.611108227547370   0.888890823636808   0.624972686363583   1.0000000
N2   N   0.444375040892146   0.388854187112737   0.625204284231793   1.0000000
N2   N   0.944449262756116   0.888890823636808   0.624972686363583   1.0000000
N2   N   0.111111239434517   0.888888760565483   0.125019442102612   1.0000000
N2   N   0.777797369717662   0.388883410029907   0.624929152922304   1.0000000
N2   N   0.444444187797637   0.888888760565483   0.125019442102612   1.0000000
N2   N   0.277752706978917   0.388883410029907   0.125070847077696   1.0000000
N2   N   0.277768659863047   0.555558699131383   0.125020245989703   1.0000000
N2   N   0.611145812887263   0.388854187112737   0.124795715768207   1.0000000
N2   N   0.777780500643522   0.888894334620373   0.125034635525335   1.0000000
N2   N   0.944449262756116   0.388891772452630   0.125027313636417   1.0000000
N2   N   0.111111239434517   0.555555812202363   0.624980557897388   1.0000000
N2   N   0.277768659863047   0.055543294065007   0.624979754010297   1.0000000
N2   N   0.777808721584321   0.555571027458828   0.624909414024541   1.0000000
N2   N   0.611108227547370   0.055550737243884   0.624972686363583   1.0000000
N2   N   0.944445768304814   0.055554231695185   0.624964675381320   1.0000000
N2   N   0.055833843892869   0.111302008513645   0.375000000000000   1.0000000
N2   N   0.554753348306714   0.607311610336299   0.375000000000000   1.0000000
N2   N   0.388843762117940   0.111020857569229   0.375000000000000   1.0000000
N2   N   0.888979142430771   0.611156237882060   0.375000000000000   1.0000000
N2   N   0.722134831287447   0.111302008513645   0.375000000000000   1.0000000
N2   N   0.055549182461100   0.777775083783529   0.875000000000000   1.0000000
N2   N   0.388892567989093   0.777775083783529   0.875000000000000   1.0000000
N2   N   0.222237049255654   0.277785191294491   0.875000000000000   1.0000000
N2   N   0.722214808705509   0.777762950744346   0.875000000000000   1.0000000
N2   N   0.555553079503692   0.277784749637864   0.875000000000000   1.0000000
N2   N   0.888886081824950   0.277782767564000   0.875000000000000   1.0000000
N2   N   0.222222222222221   0.777777777777779   0.375000000000000   1.0000000
N2   N   0.055833843892869   0.277865168712553   0.375000000000000   1.0000000
N2   N   0.392688389663701   0.280775071303751   0.375000000000000   1.0000000
N2   N   0.555552496590853   0.776681934123948   0.375000000000000   1.0000000
N2   N   0.887796104199759   0.776681934123948   0.375000000000000   1.0000000
N2   N   0.721696557857281   0.278303442142712   0.375000000000000   1.0000000
N2   N   0.055556216517790   0.944443783482210   0.875000000000000   1.0000000
N2   N   0.388892567989093   0.944450817538900   0.875000000000000   1.0000000
N2   N   0.222232149145605   0.444445379194258   0.875000000000000   1.0000000
N2   N   0.555555555555557   0.444444444444443   0.875000000000000   1.0000000
N2   N   0.722217232436000   0.944436647594286   0.875000000000000   1.0000000
N2   N   0.888879896715317   0.444445379194258   0.875000000000000   1.0000000
N2   N   0.055514084424905   0.444361502183146   0.375000000000000   1.0000000
N2   N   0.222218482542331   0.944535704552844   0.375000000000000   1.0000000
N2   N   0.555638497816854   0.944485915575088   0.375000000000000   1.0000000
N2   N   0.392688389663701   0.445246651693286   0.375000000000000   1.0000000
N2   N   0.888697991486355   0.944166156107131   0.375000000000000   1.0000000
N2   N   0.719224928696249   0.445246651693286   0.375000000000000   1.0000000
N2   N   0.222224916216472   0.611107432010907   0.875000000000000   1.0000000
N2   N   0.055563352405714   0.111113918175050   0.875000000000000   1.0000000
N2   N   0.555553079503692   0.611101663199171   0.875000000000000   1.0000000
N2   N   0.388894447718837   0.111122228771009   0.875000000000000   1.0000000
N2   N   0.888877771228991   0.611105552281163   0.875000000000000   1.0000000
N2   N   0.055464295447156   0.611016111322816   0.375000000000000   1.0000000
N2   N   0.722217232436000   0.111113918175050   0.875000000000000   1.0000000
N2   N   0.223318065876052   0.112203895800241   0.375000000000000   1.0000000
N2   N   0.388843762117940   0.611156237882060   0.375000000000000   1.0000000
N2   N   0.719224928696249   0.607311610336299   0.375000000000000   1.0000000
N2   N   0.555552496590853   0.112203895800241   0.375000000000000   1.0000000
N2   N   0.388894447718837   0.611105552281163   0.875000000000000   1.0000000
N2   N   0.888888888888886   0.111111111111114   0.375000000000000   1.0000000
N2   N   0.222222222222221   0.777777777777779   0.875000000000000   1.0000000
N2   N   0.055563352405714   0.277782767564000   0.875000000000000   1.0000000
N2   N   0.388898336800829   0.277784749637864   0.875000000000000   1.0000000
N2   N   0.555554620805742   0.777767850854395   0.875000000000000   1.0000000
N2   N   0.888879896715317   0.777767850854395   0.875000000000000   1.0000000
N2   N   0.722214808705509   0.277785191294491   0.875000000000000   1.0000000
N2   N   0.055464295447156   0.777781517457669   0.375000000000000   1.0000000
N2   N   0.388983888677184   0.777781517457669   0.375000000000000   1.0000000
N2   N   0.223273550952095   0.278303442142712   0.375000000000000   1.0000000
N2   N   0.721696557857281   0.776726449047905   0.375000000000000   1.0000000
N2   N   0.554753348306714   0.280775071303751   0.375000000000000   1.0000000
N2   N   0.888697991486355   0.277865168712553   0.375000000000000   1.0000000
N2   N   0.055556216517790   0.444445766368901   0.875000000000000   1.0000000
N2   N   0.222224916216472   0.944450817538900   0.875000000000000   1.0000000
N2   N   0.555554233631099   0.944443783482210   0.875000000000000   1.0000000
N2   N   0.388898336800829   0.444446920496300   0.875000000000000   1.0000000
N2   N   0.888886081824950   0.944436647594286   0.875000000000000   1.0000000
N2   N   0.055514084424905   0.944485915575088   0.375000000000000   1.0000000
N2   N   0.722215250362136   0.444446920496300   0.875000000000000   1.0000000
N2   N   0.388983888677184   0.944535704552844   0.375000000000000   1.0000000
N2   N   0.223318065876052   0.444447503409147   0.375000000000000   1.0000000
N2   N   0.222218482542331   0.611016111322816   0.375000000000000   1.0000000
N2   N   0.722134831287447   0.944166156107131   0.375000000000000   1.0000000
N2   N   0.887796104199759   0.444447503409147   0.375000000000000   1.0000000
N2   N   0.055549182461100   0.611107432010907   0.875000000000000   1.0000000
N2   N   0.222232149145605   0.111120103284683   0.875000000000000   1.0000000
N2   N   0.722215250362136   0.611101663199171   0.875000000000000   1.0000000
N2   N   0.555554620805742   0.111120103284683   0.875000000000000   1.0000000
N2   N   0.888888888888886   0.111111111111114   0.875000000000000   1.0000000
B2   B   0.111656190471931   0.056008245171700   0.375000000000000   1.0000000
B2   B   0.607211778377947   0.547756890089222   0.375000000000000   1.0000000
B2   B   0.444441948672715   0.055706241424612   0.375000000000000   1.0000000
B2   B   0.944293758575388   0.555558051327285   0.375000000000000   1.0000000
B2   B   0.777698241644048   0.055515787488695   0.375000000000000   1.0000000
B2   B   0.111114953722961   0.722224143528145   0.875000000000000   1.0000000
B2   B   0.444442377724551   0.722230270380493   0.875000000000000   1.0000000
B2   B   0.277773540295380   0.222217064315106   0.875000000000000   1.0000000
B2   B   0.777782935684894   0.722226459704620   0.875000000000000   1.0000000
B2   B   0.611110190686397   0.222217064315106   0.875000000000000   1.0000000
B2   B   0.944442191017150   0.222217715367643   0.875000000000000   1.0000000
B2   B   0.277797752573317   0.722202247426683   0.375000000000000   1.0000000
B2   B   0.111707377387369   0.222520355360352   0.375000000000000   1.0000000
B2   B   0.444357449261568   0.222048231856472   0.375000000000000   1.0000000
B2   B   0.610727208238703   0.720016937945288   0.375000000000000   1.0000000
B2   B   0.944293758575388   0.722069040581439   0.375000000000000   1.0000000
B2   B   0.777479644639648   0.222520355360352   0.375000000000000   1.0000000
B2   B   0.111110994947215   0.888889005052785   0.875000000000000   1.0000000
B2   B   0.444444676772241   0.888889005052785   0.875000000000000   1.0000000
B2   B   0.277773540295380   0.388889809313603   0.875000000000000   1.0000000
B2   B   0.611106203992525   0.388893796007475   0.875000000000000   1.0000000
B2   B   0.777783846224743   0.888901025782815   0.875000000000000   1.0000000
B2   B   0.944449917736375   0.388885028259250   0.875000000000000   1.0000000
B2   B   0.111656190471931   0.388981278633560   0.375000000000000   1.0000000
B2   B   0.277797752573317   0.888928838479962   0.375000000000000   1.0000000
B2   B   0.611018721366440   0.888343809528068   0.375000000000000   1.0000000
B2   B   0.452243109910778   0.392788221622053   0.375000000000000   1.0000000
B2   B   0.943991754828300   0.888343809528068   0.375000000000000   1.0000000
B2   B   0.775956396373256   0.389272791761296   0.375000000000000   1.0000000
B2   B   0.277769729619507   0.555557622275448   0.875000000000000   1.0000000
B2   B   0.111101777189539   0.055550082263625   0.875000000000000   1.0000000
B2   B   0.611106203992525   0.555545741318379   0.875000000000000   1.0000000
B2   B   0.444442377724551   0.055545440677394   0.875000000000000   1.0000000
B2   B   0.944454559322606   0.555557622275448   0.875000000000000   1.0000000
B2   B   0.111088492002912   0.555510317339152   0.375000000000000   1.0000000
B2   B   0.777782284632357   0.055557808982850   0.875000000000000   1.0000000
B2   B   0.277930959418561   0.055706241424612   0.375000000000000   1.0000000
B2   B   0.444357449261568   0.555642550738432   0.375000000000000   1.0000000
B2   B   0.777951768143528   0.555642550738432   0.375000000000000   1.0000000
B2   B   0.611018721366440   0.056008245171700   0.375000000000000   1.0000000
B2   B   0.444442376831245   0.555557623168755   0.875000000000000   1.0000000
B2   B   0.944484212511305   0.055515787488695   0.375000000000000   1.0000000
B2   B   0.277775856471855   0.722224143528145   0.875000000000000   1.0000000
B2   B   0.111098974217185   0.222216153775257   0.875000000000000   1.0000000
B2   B   0.444442376831245   0.222218086995833   0.875000000000000   1.0000000
B2   B   0.611110190686397   0.722226459704620   0.875000000000000   1.0000000
B2   B   0.944454559322606   0.722230270380493   0.875000000000000   1.0000000
B2   B   0.777783846224743   0.222216153775257   0.875000000000000   1.0000000
B2   B   0.111071161520038   0.722202247426683   0.375000000000000   1.0000000
B2   B   0.444441948672715   0.722069040581439   0.375000000000000   1.0000000
B2   B   0.279983062054712   0.224043603626744   0.375000000000000   1.0000000
B2   B   0.775956396373256   0.720016937945288   0.375000000000000   1.0000000
B2   B   0.610727208238703   0.224043603626744   0.375000000000000   1.0000000
B2   B   0.944484212511305   0.222301758355952   0.375000000000000   1.0000000
B2   B   0.111101777189539   0.388885028259250   0.875000000000000   1.0000000
B2   B   0.277775856471855   0.888885046277039   0.875000000000000   1.0000000
B2   B   0.611114971740750   0.888898222810460   0.875000000000000   1.0000000
B2   B   0.444454258681621   0.388893796007475   0.875000000000000   1.0000000
B2   B   0.944449917736375   0.888898222810460   0.875000000000000   1.0000000
B2   B   0.111088492002912   0.888911507997088   0.375000000000000   1.0000000
B2   B   0.777782935684894   0.388889809313603   0.875000000000000   1.0000000
B2   B   0.444489682660848   0.888911507997088   0.375000000000000   1.0000000
B2   B   0.279983062054712   0.389272791761296   0.375000000000000   1.0000000
B2   B   0.277930959418561   0.555558051327285   0.375000000000000   1.0000000
B2   B   0.607211778377947   0.392788221622053   0.375000000000000   1.0000000
B2   B   0.777479644639648   0.888292622612624   0.375000000000000   1.0000000
B2   B   0.943991754828300   0.388981278633560   0.375000000000000   1.0000000
B2   B   0.111110994947215   0.555555323227759   0.875000000000000   1.0000000
B2   B   0.277769729619507   0.055545440677394   0.875000000000000   1.0000000
B2   B   0.777781913004167   0.555557623168755   0.875000000000000   1.0000000
B2   B   0.611114971740750   0.055550082263625   0.875000000000000   1.0000000
B2   B   0.944442191017150   0.055557808982850   0.875000000000000   1.0000000
B2   B   0.055551222095680   0.111105028180861   0.124994603667431   1.0000000
B2   B   0.555577906668636   0.611067434228183   0.125040097931031   1.0000000
B2   B   0.388904025440488   0.111141384214311   0.125021245111655   1.0000000
B2   B   0.888858615785689   0.611095974559512   0.125021245111655   1.0000000
B2   B   0.722220472751846   0.111105028180861   0.124994603667431   1.0000000
B2   B   0.055560216986182   0.777779131326909   0.625002441170889   1.0000000
B2   B   0.388885581007392   0.777779131326909   0.625002441170889   1.0000000
B2   B   0.222229822404284   0.277781577868810   0.624996050256152   1.0000000
B2   B   0.722218422131190   0.777770177595716   0.624996050256152   1.0000000
B2   B   0.555577906668636   0.277843805773789   0.624959902068970   1.0000000
B2   B   0.888894971819139   0.277779527248154   0.625005396332576   1.0000000
B2   B   0.222222222222221   0.777777777777779   0.125000348033569   1.0000000
B2   B   0.055551222095680   0.277779527248154   0.124994603667431   1.0000000
B2   B   0.388932565771817   0.277843805773789   0.125040097931031   1.0000000
B2   B   0.555555844829154   0.777775117463209   0.125005094927271   1.0000000
B2   B   0.888885939300712   0.777775117463209   0.125005094927271   1.0000000
B2   B   0.722218422131190   0.277781577868810   0.125003949743848   1.0000000
B2   B   0.055559204773161   0.944440795226839   0.625004993444017   1.0000000
B2   B   0.388885581007392   0.944439783013818   0.625002441170889   1.0000000
B2   B   0.222224882536791   0.444444155170846   0.624994905072729   1.0000000
B2   B   0.555555555555557   0.444444444444443   0.624202908285236   1.0000000
B2   B   0.722220472751846   0.944448777904320   0.625005396332576   1.0000000
B2   B   0.888885939300712   0.444444155170846   0.624994905072729   1.0000000
B2   B   0.055559204773161   0.444451742879657   0.124995006555983   1.0000000
B2   B   0.222220868673091   0.944439783013818   0.124997558829111   1.0000000
B2   B   0.555548257120343   0.944440795226839   0.124995006555983   1.0000000
B2   B   0.388932565771817   0.444422093331364   0.125040097931031   1.0000000
B2   B   0.888894971819139   0.944448777904320   0.124994603667431   1.0000000
B2   B   0.722156194226211   0.444422093331364   0.125040097931031   1.0000000
B2   B   0.222220868673091   0.611114418992608   0.625002441170889   1.0000000
B2   B   0.055551222095680   0.111105028180861   0.625005396332576   1.0000000
B2   B   0.555577906668636   0.611067434228183   0.624959902068970   1.0000000
B2   B   0.388904025440488   0.111141384214311   0.624978754888345   1.0000000
B2   B   0.888858615785689   0.611095974559512   0.624978754888345   1.0000000
B2   B   0.055560216986182   0.611114418992608   0.124997558829111   1.0000000
B2   B   0.722220472751846   0.111105028180861   0.625005396332576   1.0000000
B2   B   0.222224882536791   0.111114060699289   0.125005094927271   1.0000000
B2   B   0.388904025440488   0.611095974559512   0.125021245111655   1.0000000
B2   B   0.722156194226211   0.611067434228183   0.125040097931031   1.0000000
B2   B   0.555555844829154   0.111114060699289   0.125005094927271   1.0000000
B2   B   0.388904025440488   0.611095974559512   0.624978754888345   1.0000000
B2   B   0.888888888888886   0.111111111111114   0.124994950502818   1.0000000
B2   B   0.222222222222221   0.777777777777779   0.624999651966430   1.0000000
B2   B   0.055551222095680   0.277779527248154   0.625005396332576   1.0000000
B2   B   0.388932565771817   0.277843805773789   0.624959902068970   1.0000000
B2   B   0.555555844829154   0.777775117463209   0.624994905072729   1.0000000
B2   B   0.888885939300712   0.777775117463209   0.624994905072729   1.0000000
B2   B   0.722218422131190   0.277781577868810   0.624996050256152   1.0000000
B2   B   0.055560216986182   0.777779131326909   0.124997558829111   1.0000000
B2   B   0.388885581007392   0.777779131326909   0.124997558829111   1.0000000
B2   B   0.222229822404284   0.277781577868810   0.125003949743848   1.0000000
B2   B   0.722218422131190   0.777770177595716   0.125003949743848   1.0000000
B2   B   0.555577906668636   0.277843805773789   0.125040097931031   1.0000000
B2   B   0.888894971819139   0.277779527248154   0.124994603667431   1.0000000
B2   B   0.055559204773161   0.444451742879657   0.625004993444017   1.0000000
B2   B   0.222220868673091   0.944439783013818   0.625002441170889   1.0000000
B2   B   0.555548257120343   0.944440795226839   0.625004993444017   1.0000000
B2   B   0.388932565771817   0.444422093331364   0.624959902068970   1.0000000
B2   B   0.888894971819139   0.944448777904320   0.625005396332576   1.0000000
B2   B   0.055559204773161   0.944440795226839   0.124995006555983   1.0000000
B2   B   0.722156194226211   0.444422093331364   0.624959902068970   1.0000000
B2   B   0.388885581007392   0.944439783013818   0.124997558829111   1.0000000
B2   B   0.222224882536791   0.444444155170846   0.125005094927271   1.0000000
B2   B   0.222220868673091   0.611114418992608   0.124997558829111   1.0000000
B2   B   0.555555555555557   0.444444444444443   0.125797091714764   1.0000000
B2   B   0.722220472751846   0.944448777904320   0.124994603667431   1.0000000
B2   B   0.888885939300712   0.444444155170846   0.125005094927271   1.0000000
B2   B   0.055560216986182   0.611114418992608   0.625002441170889   1.0000000
B2   B   0.222224882536791   0.111114060699289   0.624994905072729   1.0000000
B2   B   0.722156194226211   0.611067434228183   0.624959902068970   1.0000000
B2   B   0.555555844829154   0.111114060699289   0.624994905072729   1.0000000
B2   B   0.888888888888886   0.111111111111114   0.625005049497182   1.0000000


