data_1
_audit_creation_method   'vasp2cif'
_cell_length_a    17.52789999999977
_cell_length_b    17.52789999999977
_cell_length_c    15.0
_cell_angle_alpha    90.0
_cell_angle_beta    90.0
_cell_angle_gamma    119.99999999999916

_symmetry_space_group_name_H-M    'P 1'
loop_
_atom_site_label
_atom_site_type_symbol
_atom_site_fract_x
_atom_site_fract_y
_atom_site_fract_z
_atom_site_occupancy
Ga2   Ga   0.440073596605096   0.505752000926545   0.111264657978592   1.0000000
B2   B   0.904853873207248   0.952494118172287   0.110998791199456   1.0000000
B2   B   0.906296298227310   0.096233737653825   0.111038534113476   1.0000000
B2   B   0.906746897438799   0.239087795564902   0.111098606701782   1.0000000
B2   B   0.906296298227310   0.381491254264482   0.111038534113476   1.0000000
B2   B   0.904853873207248   0.523790160282969   0.110998791199456   1.0000000
B2   B   0.903352577940897   0.666078253397332   0.111054740643686   1.0000000
B2   B   0.903352577940897   0.808704729791567   0.111054740643686   1.0000000
B2   B   0.046702435008375   0.951434586272391   0.111001535575711   1.0000000
B2   B   0.048000648475672   0.094956727803446   0.111000394000214   1.0000000
B2   B   0.049788407196450   0.239138820565840   0.111031780203756   1.0000000
B2   B   0.049788407196450   0.382079991877610   0.111031780203756   1.0000000
B2   B   0.048000648475672   0.524474325920220   0.111000394000214   1.0000000
B2   B   0.046702435008375   0.666699965539974   0.111001535575711   1.0000000
B2   B   0.046394293790455   0.808913205297226   0.110986726549627   1.0000000
B2   B   0.189538611049932   0.951339113400860   0.111001499382834   1.0000000
B2   B   0.189712355141155   0.093286681347784   0.111045736144579   1.0000000
B2   B   0.191075828831236   0.236708168755955   0.111019802289590   1.0000000
B2   B   0.193963004996803   0.382696705121905   0.111055127993027   1.0000000
B2   B   0.191075828831236   0.525798065323290   0.111019802289590   1.0000000
B2   B   0.189712355141155   0.667856079041365   0.111045736144579   1.0000000
B2   B   0.189538611049932   0.809631614453084   0.111001499382834   1.0000000
B2   B   0.332933702274127   0.952182909538568   0.111022377491696   1.0000000
B2   B   0.332924874650356   0.092709912119891   0.111070266575185   1.0000000
B2   B   0.332685205050958   0.232400048194382   0.111037831200651   1.0000000
B2   B   0.333793801749606   0.371444308646377   0.111178596652643   1.0000000
B2   B   0.333793801749606   0.533779898350229   0.111178596652643   1.0000000
B2   B   0.332685205050958   0.671715562103583   0.111037831200651   1.0000000
B2   B   0.332924874650356   0.811645367777465   0.111070266575185   1.0000000
B2   B   0.476714075381662   0.953753263404947   0.111012861190991   1.0000000
B2   B   0.476714075381662   0.094391217223722   0.111012861190991   1.0000000
B2   B   0.476771831817581   0.234921929527643   0.111021498567859   1.0000000
B2   B   0.477982176223734   0.375707168741775   0.111033989318253   1.0000000
B2   B   0.477982176223734   0.673705412728959   0.111033989318253   1.0000000
B2   B   0.476771831817581   0.813280307536945   0.111021498567859   1.0000000
B2   B   0.620374888958286   0.954169701601159   0.111000269433962   1.0000000
B2   B   0.620369776840371   0.095899235265681   0.110991169199191   1.0000000
B2   B   0.620374888958286   0.237635592604126   0.111000269433962   1.0000000
B2   B   0.620206675093163   0.379639598159368   0.111009211478610   1.0000000
B2   B   0.616897912848080   0.521210765661047   0.111075020905232   1.0000000
B2   B   0.616897912848080   0.667117552435029   0.111075020905232   1.0000000
B2   B   0.620206675093163   0.811997482180794   0.111009211478610   1.0000000
B2   B   0.763144982142872   0.953719732736561   0.110998521489395   1.0000000
B2   B   0.763598485304517   0.096382057402131   0.111029921993771   1.0000000
B2   B   0.763598485304517   0.238645121593384   0.111029921993771   1.0000000
B2   B   0.763144982142872   0.380855654653311   0.110998521489395   1.0000000
B2   B   0.761503192763396   0.523063859133345   0.111051525342079   1.0000000
B2   B   0.759322577429448   0.665376491338725   0.111103939416166   1.0000000
B2   B   0.761503192763396   0.809869738878045   0.111051525342079   1.0000000
N2   N   0.951628942073287   0.904145675494098   0.110989135297166   1.0000000
N2   N   0.953050347082703   0.047896693006728   0.110964237541671   1.0000000
N2   N   0.954563716969242   0.191685798890265   0.111030715409447   1.0000000
N2   N   0.954563716969242   0.334304900196983   0.111030715409447   1.0000000
N2   N   0.953050347082703   0.476580636193973   0.110964237541671   1.0000000
N2   N   0.951628942073287   0.618911960254184   0.110989135297166   1.0000000
N2   N   0.951193530050983   0.761311111862989   0.111016725310337   1.0000000
N2   N   0.094325563542962   0.903995596317704   0.110953896004115   1.0000000
N2   N   0.094755002500949   0.046623594997813   0.110975974226416   1.0000000
N2   N   0.096268372736513   0.190407329613136   0.110967568062814   1.0000000
N2   N   0.098547269949562   0.334987981811781   0.110987878513969   1.0000000
N2   N   0.096268372736513   0.477289736797385   0.110967568062814   1.0000000
N2   N   0.094755002500949   0.619560101178132   0.110975974226416   1.0000000
N2   N   0.094325563542962   0.761760372456263   0.110953896004115   1.0000000
N2   N   0.237553815407458   0.904492110319232   0.110962543163504   1.0000000
N2   N   0.237579401601122   0.046145013870571   0.111019495281366   1.0000000
N2   N   0.237751547759335   0.188171043496727   0.111010527008711   1.0000000
N2   N   0.240373201057084   0.332783923913777   0.111032231511178   1.0000000
N2   N   0.240373201057084   0.479017970817300   0.111032231511178   1.0000000
N2   N   0.237751547759335   0.621009197937603   0.111010527008711   1.0000000
N2   N   0.237579401601122   0.762863081405554   0.111019495281366   1.0000000
N2   N   0.381251245505907   0.906074957660246   0.111005383293656   1.0000000
N2   N   0.381251245505907   0.046604981520663   0.111005383293656   1.0000000
N2   N   0.381214062058233   0.186822582664569   0.111018789194307   1.0000000
N2   N   0.381160223407465   0.326206070259637   0.110993636941827   1.0000000
N2   N   0.381160223407465   0.626382846822831   0.110993636941827   1.0000000
N2   N   0.381214062058233   0.765820173068667   0.111018789194307   1.0000000
N2   N   0.525003092006287   0.907544395884581   0.110985282476014   1.0000000
N2   N   0.525006872749384   0.048216927434195   0.110961389636651   1.0000000
N2   N   0.525003092006287   0.188887389796702   0.110985282476014   1.0000000
N2   N   0.525101687393979   0.329064457452059   0.110977315547489   1.0000000
N2   N   0.523354820791182   0.468278872222282   0.111038170471558   1.0000000
N2   N   0.523354820791182   0.626504642243896   0.111038170471558   1.0000000
N2   N   0.525101687393979   0.767465923616923   0.110977315547489   1.0000000
N2   N   0.668159546302349   0.906961801357892   0.110974093840183   1.0000000
N2   N   0.668377866043671   0.049016889488217   0.110970750159309   1.0000000
N2   N   0.668377866043671   0.190787958674462   0.110970750159309   1.0000000
N2   N   0.668159546302349   0.332626438619453   0.110974093840183   1.0000000
N2   N   0.666749751218404   0.474876830441919   0.111027085627826   1.0000000
N2   N   0.663839695126658   0.617634194401331   0.111068606202252   1.0000000
N2   N   0.666749751218404   0.763301614451488   0.111027085627826   1.0000000
N2   N   0.809893228474926   0.905365906473368   0.110987705776687   1.0000000
N2   N   0.811194226505324   0.048923586860764   0.110992731356315   1.0000000
N2   N   0.811538953298530   0.191482967708268   0.111034342976259   1.0000000
N2   N   0.811194226505324   0.333697621762559   0.110992731356315   1.0000000
N2   N   0.809893228474926   0.475956015675559   0.110987705776687   1.0000000
N2   N   0.808148402169243   0.618391317981042   0.111067978542480   1.0000000
N2   N   0.808148402169243   0.761185777863211   0.111067978542480   1.0000000


