data_1
_audit_creation_method   'vasp2cif'
_cell_length_a    17.52789999999977
_cell_length_b    17.52789999999977
_cell_length_c    15.0
_cell_angle_alpha    90.0
_cell_angle_beta    90.0
_cell_angle_gamma    119.99999999999916

_symmetry_space_group_name_H-M    'P 1'
loop_
_atom_site_label
_atom_site_type_symbol
_atom_site_fract_x
_atom_site_fract_y
_atom_site_fract_z
_atom_site_occupancy
B2   B   0.905880889202061   0.952648779492898   0.111001908452366   1.0000000
B2   B   0.904748262570265   0.093902703192795   0.111019023100252   1.0000000
B2   B   0.904472875692159   0.236053363388360   0.111018265382070   1.0000000
B2   B   0.904392392294361   0.378947837463803   0.110970863389772   1.0000000
B2   B   0.904705708261009   0.522572727877445   0.111052286017809   1.0000000
B2   B   0.905580587198159   0.666442225944701   0.111113299574959   1.0000000
B2   B   0.905878002843915   0.809752518801760   0.111048512013690   1.0000000
B2   B   0.048996882539072   0.954163427180396   0.110941331911328   1.0000000
B2   B   0.050258309277828   0.097779345984200   0.110966132541895   1.0000000
B2   B   0.048612222508595   0.238392015772841   0.111009208595981   1.0000000
B2   B   0.046886833092255   0.379981946462088   0.110977639269115   1.0000000
B2   B   0.045569482238424   0.523172209168406   0.110951286124390   1.0000000
B2   B   0.046348446376512   0.666975616509026   0.111029183645075   1.0000000
B2   B   0.047932615901304   0.810630911321754   0.110985189430359   1.0000000
B2   B   0.191058327957843   0.954216355928634   0.110966910181299   1.0000000
B2   B   0.192852144601878   0.098583212575467   0.111030489450138   1.0000000
B2   B   0.195997269759970   0.244328034868627   0.111094446329361   1.0000000
B2   B   0.191136205504267   0.382559888549635   0.111084699077953   1.0000000
B2   B   0.186386484782187   0.524063242751950   0.111005397670948   1.0000000
B2   B   0.186676777916633   0.667333876821156   0.111015552440536   1.0000000
B2   B   0.189471271839238   0.810675650934133   0.111010568049827   1.0000000
B2   B   0.332900355436575   0.953051216173554   0.111043147278449   1.0000000
B2   B   0.334296442641493   0.096834785020467   0.111091516143083   1.0000000
B2   B   0.336911206531518   0.242711481317945   0.111133311877097   1.0000000
B2   B   0.345025908213262   0.393652334049023   0.111138499326601   1.0000000
B2   B   0.326614102210198   0.527138418120452   0.111175817116520   1.0000000
B2   B   0.326076028130743   0.668228697040882   0.111087154914808   1.0000000
B2   B   0.331156698124296   0.810215248604872   0.111044034794894   1.0000000
B2   B   0.474876144443468   0.949443025589700   0.111030973970059   1.0000000
B2   B   0.476110750976232   0.093206018676806   0.111074947348173   1.0000000
B2   B   0.477351248514744   0.236360117381955   0.111067239984906   1.0000000
B2   B   0.481382187061385   0.380573926473665   0.110717988465327   1.0000000
B2   B   0.461091493523585   0.653931603312171   0.111180340055377   1.0000000
B2   B   0.472567334772796   0.804129749094509   0.111111751781505   1.0000000
B2   B   0.616840011630378   0.948192812287526   0.111098358443106   1.0000000
B2   B   0.618272110427944   0.091804021301235   0.111020662014585   1.0000000
B2   B   0.619331224093919   0.234843791523752   0.111009051084484   1.0000000
B2   B   0.620895587511348   0.377344591608759   0.110939080359606   1.0000000
B2   B   0.619336497543961   0.516131027380246   0.110653178744855   1.0000000
B2   B   0.636713856474248   0.670341457749827   0.111029252358403   1.0000000
B2   B   0.613629076444178   0.803878112131338   0.111199687374123   1.0000000
B2   B   0.760104656261369   0.949176017772464   0.111101939603907   1.0000000
B2   B   0.760895630375387   0.092058221659528   0.111071944468236   1.0000000
B2   B   0.761625123877088   0.235050392782367   0.111004571905182   1.0000000
B2   B   0.762561566516377   0.378216176092335   0.111032735745266   1.0000000
B2   B   0.763584111579937   0.521441431742475   0.111076082690529   1.0000000
B2   B   0.764599864978056   0.664851615417392   0.111028360656153   1.0000000
B2   B   0.763552261448745   0.808802063411414   0.111083950700888   1.0000000
N2   N   0.952906745090121   0.904888645291049   0.110965677611260   1.0000000
N2   N   0.953745915499599   0.047840598712797   0.110958908032090   1.0000000
N2   N   0.952740207456638   0.189136748182833   0.110992057189033   1.0000000
N2   N   0.951813407553025   0.331368174438028   0.110960011428056   1.0000000
N2   N   0.951058203932310   0.474495425989722   0.110949234670598   1.0000000
N2   N   0.951491235642495   0.618231880512265   0.111063601443021   1.0000000
N2   N   0.952301410823719   0.761797439095986   0.111046776925643   1.0000000
N2   N   0.095642411660640   0.906030654126634   0.110919046583916   1.0000000
N2   N   0.097202049197805   0.049823600585809   0.110934437502771   1.0000000
N2   N   0.099162694746559   0.193857281571689   0.110992559491850   1.0000000
N2   N   0.095762405294912   0.333401379923168   0.111002176798882   1.0000000
N2   N   0.092366343430617   0.475237286679949   0.110924863703156   1.0000000
N2   N   0.092347886045905   0.618672869471106   0.110977340892364   1.0000000
N2   N   0.094296937359714   0.762432611691049   0.110986440473071   1.0000000
N2   N   0.237746600349992   0.905913457523100   0.110982194884409   1.0000000
N2   N   0.239192734798034   0.049793645901841   0.111007328679014   1.0000000
N2   N   0.241769909075294   0.194986568621063   0.111102197772863   1.0000000
N2   N   0.246206485231719   0.342108412609269   0.111144035878258   1.0000000
N2   N   0.233742578157283   0.476617548479084   0.111078289872776   1.0000000
N2   N   0.232534815298619   0.619184942330463   0.110998100232156   1.0000000
N2   N   0.236065153280031   0.762544999520867   0.111020725646305   1.0000000
N2   N   0.379906351693829   0.904709130984652   0.111021680507076   1.0000000
N2   N   0.381072351140782   0.048098102605665   0.111070778110765   1.0000000
N2   N   0.382566607515854   0.192565919482381   0.111105349270134   1.0000000
N2   N   0.387109186188709   0.340143912093068   0.111037387220382   1.0000000
N2   N   0.386053964509207   0.494218426383222   0.111178506669990   1.0000000
N2   N   0.370500494769897   0.620020049557454   0.111184679953634   1.0000000
N2   N   0.377943058050986   0.762000237513406   0.111033756781375   1.0000000
N2   N   0.521715390967360   0.899810845879996   0.111043689798248   1.0000000
N2   N   0.523149092395495   0.044645719269052   0.111014327159019   1.0000000
N2   N   0.524285202989977   0.188296456860396   0.111051583947540   1.0000000
N2   N   0.526248529007036   0.331310565693401   0.110912167732421   1.0000000
N2   N   0.518662117177883   0.751509524561255   0.111211548594562   1.0000000
N2   N   0.663580677990508   0.898896560021256   0.111131700007872   1.0000000
N2   N   0.665370327496345   0.043426303571139   0.111045535051171   1.0000000
N2   N   0.666427614470981   0.187039601709139   0.110986600421624   1.0000000
N2   N   0.667678406093260   0.330141272038143   0.110986217473572   1.0000000
N2   N   0.668941729829841   0.472897033593938   0.110935084918890   1.0000000
N2   N   0.665922828193600   0.612756818826631   0.110848889274501   1.0000000
N2   N   0.664081022609874   0.757508786968134   0.111140844009477   1.0000000
N2   N   0.809033620840910   0.902639526477751   0.111046347413807   1.0000000
N2   N   0.808498051912815   0.044280729489713   0.111061134552111   1.0000000
N2   N   0.808998220284979   0.187341009928599   0.111024768007936   1.0000000
N2   N   0.809407102634310   0.330509774480985   0.110986391579862   1.0000000
N2   N   0.809911687901248   0.473933376697490   0.111072261229790   1.0000000
N2   N   0.810029490445796   0.617204174589297   0.111086880285532   1.0000000
N2   N   0.809104031268616   0.759863224650999   0.111050768156322   1.0000000
O2   O   0.477198644146899   0.581078470849581   0.110938854586934   1.0000000
O2   O   0.530637962564880   0.471041605443724   0.110192643396691   1.0000000


