data_1
_audit_creation_method   'vasp2cif'
_cell_length_a    17.52789999999977
_cell_length_b    17.52789999999977
_cell_length_c    15.0
_cell_angle_alpha    90.0
_cell_angle_beta    90.0
_cell_angle_gamma    119.99999999999916

_symmetry_space_group_name_H-M    'P 1'
loop_
_atom_site_label
_atom_site_type_symbol
_atom_site_fract_x
_atom_site_fract_y
_atom_site_fract_z
_atom_site_occupancy
B2   B   0.906824287284852   0.952325112512406   0.112232295031150   1.0000000
B2   B   0.907958960945569   0.095432789753920   0.113770291842291   1.0000000
B2   B   0.908472152184881   0.238120544908891   0.113876613275807   1.0000000
B2   B   0.908568419920489   0.380771368690355   0.110836114889583   1.0000000
B2   B   0.907693168409989   0.523445859409877   0.105693319411392   1.0000000
B2   B   0.906462883544393   0.665883083372433   0.105223106018421   1.0000000
B2   B   0.903483325085178   0.806923677836697   0.112110902145248   1.0000000
B2   B   0.049405313773524   0.953404863491830   0.113674853513982   1.0000000
B2   B   0.051629503782804   0.097224370354718   0.114663126504830   1.0000000
B2   B   0.051912873161392   0.239424547330296   0.115175467422282   1.0000000
B2   B   0.051217217722674   0.381822243657132   0.115183863444529   1.0000000
B2   B   0.049777241153156   0.524699291406650   0.113923051084896   1.0000000
B2   B   0.049133977791816   0.667613620104170   0.111422959706872   1.0000000
B2   B   0.048591151210840   0.810351692686962   0.112252212726385   1.0000000
B2   B   0.192559048506406   0.954700780261791   0.115254189028977   1.0000000
B2   B   0.195509767603181   0.099535026926333   0.114939465336005   1.0000000
B2   B   0.196885511849098   0.242326708755946   0.114397298133022   1.0000000
B2   B   0.194958046253983   0.383227320476897   0.113116294201392   1.0000000
B2   B   0.191727740646641   0.525724159259596   0.115712964667324   1.0000000
B2   B   0.191165662447169   0.668631118494165   0.116596596879472   1.0000000
B2   B   0.191631260894922   0.811472072659921   0.115454012449385   1.0000000
B2   B   0.335164093511953   0.954595305317896   0.116487364236953   1.0000000
B2   B   0.336811814338303   0.098375987275575   0.115552004213042   1.0000000
B2   B   0.343119071860662   0.246485992789975   0.114045546720710   1.0000000
B2   B   0.342304321408904   0.386489934650983   0.106477104520477   1.0000000
B2   B   0.332674252439930   0.528170586356883   0.102772546983397   1.0000000
B2   B   0.332633595147209   0.669847659135588   0.112360097664711   1.0000000
B2   B   0.334300992743042   0.811921038795714   0.116166862801746   1.0000000
B2   B   0.477962017870889   0.953477361157811   0.115223755603019   1.0000000
B2   B   0.478927585636490   0.095998034536027   0.114422957156005   1.0000000
B2   B   0.480773061603413   0.239175835895268   0.111235429924113   1.0000000
B2   B   0.496469740180136   0.393366475940191   0.112891694725455   1.0000000
B2   B   0.472548034902595   0.670738455462308   0.090990799506750   1.0000000
B2   B   0.477096171898194   0.811303519565749   0.109546142391700   1.0000000
B2   B   0.621071764304120   0.952772188884748   0.110755233167000   1.0000000
B2   B   0.621762894798749   0.094746162452607   0.113574651655297   1.0000000
B2   B   0.622695003841639   0.236347370610977   0.109146590216834   1.0000000
B2   B   0.624872544096481   0.377119459172650   0.101419643772630   1.0000000
B2   B   0.610824395103533   0.503862137541086   0.112141373324872   1.0000000
B2   B   0.619902131461569   0.809806863166204   0.100621690065844   1.0000000
B2   B   0.763930358452501   0.951708705775067   0.109413076114622   1.0000000
B2   B   0.764893097189614   0.094762393728941   0.112901233159179   1.0000000
B2   B   0.765561950751748   0.237201972858143   0.111151541834837   1.0000000
B2   B   0.766455956875666   0.379385553445943   0.103974040966767   1.0000000
B2   B   0.764744452344777   0.520753793193652   0.098505674128709   1.0000000
B2   B   0.760547021962318   0.658808455390326   0.111904957422984   1.0000000
B2   B   0.762036580691642   0.807148664878731   0.107322364076219   1.0000000
O2   O   0.631131191133091   0.641365026497748   0.169424771163020   1.0000000
N2   N   0.953389067815239   0.903706399218544   0.112719224317976   1.0000000
N2   N   0.955967010805543   0.048379503584630   0.113833680639738   1.0000000
N2   N   0.956461984860205   0.191073160872854   0.114750410165380   1.0000000
N2   N   0.956248149370125   0.333511241288308   0.113772155697241   1.0000000
N2   N   0.955196885638759   0.476111322812573   0.110191265967871   1.0000000
N2   N   0.954339688494039   0.618812550869968   0.106500341843669   1.0000000
N2   N   0.953025448213601   0.761117033787656   0.109984170319795   1.0000000
N2   N   0.097071190871688   0.906031077299804   0.113895272121747   1.0000000
N2   N   0.099302838719728   0.049964501923913   0.114462828467052   1.0000000
N2   N   0.100838393401595   0.193227765910908   0.115251055892430   1.0000000
N2   N   0.099743674272109   0.334901496107946   0.115236143215666   1.0000000
N2   N   0.097333701702080   0.477156908699939   0.116148865836228   1.0000000
N2   N   0.096500675329026   0.620049966174046   0.114559314843540   1.0000000
N2   N   0.096422233386288   0.763014061533590   0.112917810013062   1.0000000
N2   N   0.239819136964685   0.906861793008551   0.116051734488868   1.0000000
N2   N   0.241534785504861   0.050592276194975   0.115552726541052   1.0000000
N2   N   0.246043608774533   0.196536031390172   0.114554119304434   1.0000000
N2   N   0.245966286671052   0.338398598346526   0.112012601936024   1.0000000
N2   N   0.239621202198827   0.478363705699201   0.112399931969587   1.0000000
N2   N   0.238363538251456   0.620893508523897   0.116777837246425   1.0000000
N2   N   0.239076141429544   0.763836012863809   0.116774137091015   1.0000000
N2   N   0.382519760148108   0.906818636789340   0.116561159487357   1.0000000
N2   N   0.383584394884151   0.049863689136852   0.115913053065409   1.0000000
N2   N   0.386042791003315   0.194333134497417   0.114553654611612   1.0000000
N2   N   0.396217279002132   0.345543316690858   0.112286556721096   1.0000000
N2   N   0.382314460500829   0.482047995034533   0.092802874108269   1.0000000
N2   N   0.379230419132942   0.621990677305991   0.103200875499431   1.0000000
N2   N   0.381663893421839   0.764315563883036   0.113525906144656   1.0000000
N2   N   0.525404439160132   0.905946762423828   0.112706637764661   1.0000000
N2   N   0.526309603377230   0.048312953418716   0.114967715156385   1.0000000
N2   N   0.527475632403327   0.190749459338932   0.111442205196965   1.0000000
N2   N   0.530431648828419   0.333812406898012   0.108008820549553   1.0000000
N2   N   0.468830599260295   0.532706272283851   0.074218417885422   1.0000000
N2   N   0.505199416309976   0.611622933728060   0.065076961582033   1.0000000
N2   N   0.523783384249098   0.763261205657663   0.100229185602965   1.0000000
N2   N   0.668407044208869   0.905620922003115   0.106729311499515   1.0000000
N2   N   0.669438591152684   0.047678228688962   0.113056472675454   1.0000000
N2   N   0.670244334524509   0.189461955957550   0.111715866236778   1.0000000
N2   N   0.671730206407355   0.330601205067818   0.103689811243406   1.0000000
N2   N   0.670096278929537   0.470746544591829   0.095937356270764   1.0000000
N2   N   0.664026993949839   0.599068233105640   0.127139245433437   1.0000000
N2   N   0.671162089847665   0.769505461475542   0.093719132888068   1.0000000
N2   N   0.811836843477361   0.904223305124347   0.109485361004374   1.0000000
N2   N   0.812548301258735   0.047436603924500   0.112423548314661   1.0000000
N2   N   0.813208947159798   0.190077005419873   0.113077256333356   1.0000000
N2   N   0.813747035498577   0.332324768770197   0.108584066660635   1.0000000
N2   N   0.813046177069273   0.474399614500675   0.101061649763860   1.0000000
N2   N   0.811188664466931   0.615798014634470   0.101211787331650   1.0000000
N2   N   0.806914498880842   0.755801025818929   0.113539468027238   1.0000000


