data_1
_audit_creation_method   'vasp2cif'
_cell_length_a    14.93631414619966
_cell_length_b    14.936314146199727
_cell_length_c    13.341276283792837
_cell_angle_alpha    90.0
_cell_angle_beta    90.0
_cell_angle_gamma    119.99999999999984

_symmetry_space_group_name_H-M    'P 1'
loop_
_atom_site_label
_atom_site_type_symbol
_atom_site_fract_x
_atom_site_fract_y
_atom_site_fract_z
_atom_site_occupancy
N2   N   0.111112577784112   0.055554000939395   0.125153281605911   1.0000000
N2   N   0.611102513137783   0.555556152867561   0.125507193269620   1.0000000
N2   N   0.444441423155282   0.055554000939395   0.125153281605911   1.0000000
N2   N   0.944445479458284   0.555560714906942   0.125143706601910   1.0000000
N2   N   0.777777777777779   0.055555555555557   0.125128792562023   1.0000000
N2   N   0.111111111111114   0.722222222222221   0.624879181827863   1.0000000
N2   N   0.444441423155282   0.722220755549223   0.624846718394089   1.0000000
N2   N   0.277777180465775   0.222230820195553   0.624492806730380   1.0000000
N2   N   0.777779332393941   0.722220755549223   0.624846718394089   1.0000000
N2   N   0.611111567862836   0.222221765470500   0.624811276517152   1.0000000
N2   N   0.944447923147075   0.222228445015757   0.624874850818199   1.0000000
N2   N   0.277772618426393   0.722218097884678   0.125143706601910   1.0000000
N2   N   0.111110197607671   0.222221765470500   0.125188723482848   1.0000000
N2   N   0.444453639729777   0.222230820195553   0.125507193269620   1.0000000
N2   N   0.611111567862836   0.722223135725665   0.125188723482848   1.0000000
N2   N   0.944445479458284   0.722218097884678   0.125143706601910   1.0000000
N2   N   0.777780521868683   0.222228445015757   0.125125149181801   1.0000000
N2   N   0.111115235448658   0.888887853875045   0.624856293398090   1.0000000
N2   N   0.444435741952034   0.888884537642681   0.624875929806810   1.0000000
N2   N   0.277777180465775   0.388879693603551   0.624492806730380   1.0000000
N2   N   0.611102513137783   0.388879693603551   0.624492806730380   1.0000000
N2   N   0.777780521868683   0.888885410186254   0.624874850818199   1.0000000
N2   N   0.944448795690647   0.388897591381295   0.624875929806810   1.0000000
N2   N   0.111112577784112   0.388891910178046   0.125153281605911   1.0000000
N2   N   0.277772618426393   0.888887853875045   0.125143706601910   1.0000000
N2   N   0.611104888317579   0.888885410186254   0.125125149181801   1.0000000
N2   N   0.444444444444443   0.388888888888886   0.125033441552794   1.0000000
N2   N   0.944448795690647   0.888884537642681   0.125124070193190   1.0000000
N2   N   0.777779332393941   0.388891910178046   0.125153281605911   1.0000000
N2   N   0.277783569818588   0.555549763514748   0.624730690347255   1.0000000
N2   N   0.111112577784112   0.055554000939395   0.624846718394089   1.0000000
N2   N   0.611102513137783   0.555556152867561   0.624492806730380   1.0000000
N2   N   0.444441423155282   0.055554000939395   0.624846718394089   1.0000000
N2   N   0.944445479458284   0.555560714906942   0.624856293398090   1.0000000
N2   N   0.111115235448658   0.555560714906942   0.125143706601910   1.0000000
N2   N   0.777777777777779   0.055555555555557   0.624871207437977   1.0000000
N2   N   0.277783569818588   0.055567139637175   0.125269309652745   1.0000000
N2   N   0.444453639729777   0.555556152867561   0.125507193269620   1.0000000
N2   N   0.777766193696161   0.555549763514748   0.125269309652745   1.0000000
N2   N   0.611104888317579   0.055552811464653   0.125125149181801   1.0000000
N2   N   0.444453639729777   0.555556152867561   0.624492806730380   1.0000000
N2   N   0.944447923147075   0.055552811464653   0.125125149181801   1.0000000
N2   N   0.277772618426393   0.722218097884678   0.624856293398090   1.0000000
N2   N   0.111110197607671   0.222221765470500   0.624811276517152   1.0000000
N2   N   0.444453639729777   0.222230820195553   0.624492806730380   1.0000000
N2   N   0.611111567862836   0.722223135725665   0.624811276517152   1.0000000
N2   N   0.944445479458284   0.722218097884678   0.624856293398090   1.0000000
N2   N   0.777780521868683   0.222228445015757   0.624874850818199   1.0000000
N2   N   0.111111111111114   0.722222222222221   0.125120818172137   1.0000000
N2   N   0.444441423155282   0.722220755549223   0.125153281605911   1.0000000
N2   N   0.277777180465775   0.222230820195553   0.125507193269620   1.0000000
N2   N   0.777779332393941   0.722220755549223   0.125153281605911   1.0000000
N2   N   0.611111567862836   0.222221765470500   0.125188723482848   1.0000000
N2   N   0.944447923147075   0.222228445015757   0.125125149181801   1.0000000
N2   N   0.111112577784112   0.388891910178046   0.624846718394089   1.0000000
N2   N   0.277772618426393   0.888887853875045   0.624856293398090   1.0000000
N2   N   0.611104888317579   0.888885410186254   0.624874850818199   1.0000000
N2   N   0.444444444444443   0.388888888888886   0.624966558447205   1.0000000
N2   N   0.944448795690647   0.888884537642681   0.624875929806810   1.0000000
N2   N   0.111115235448658   0.888887853875045   0.125143706601910   1.0000000
N2   N   0.777779332393941   0.388891910178046   0.624846718394089   1.0000000
N2   N   0.444435741952034   0.888884537642681   0.125124070193190   1.0000000
N2   N   0.277777180465775   0.388879693603551   0.125507193269620   1.0000000
N2   N   0.277783569818588   0.555549763514748   0.125269309652745   1.0000000
N2   N   0.611102513137783   0.388879693603551   0.125507193269620   1.0000000
N2   N   0.777780521868683   0.888885410186254   0.125125149181801   1.0000000
N2   N   0.944448795690647   0.388897591381295   0.125124070193190   1.0000000
N2   N   0.111115235448658   0.555560714906942   0.624856293398090   1.0000000
N2   N   0.277783569818588   0.055567139637175   0.624730690347255   1.0000000
N2   N   0.777766193696161   0.555549763514748   0.624730690347255   1.0000000
N2   N   0.611104888317579   0.055552811464653   0.624874850818199   1.0000000
N2   N   0.944447923147075   0.055552811464653   0.624874850818199   1.0000000
N2   N   0.055093849655125   0.110813771392855   0.375000000000000   1.0000000
N2   N   0.556183690430829   0.612367380861658   0.375000000000000   1.0000000
N2   N   0.389179436146967   0.111024402493494   0.375000000000000   1.0000000
N2   N   0.888650622239091   0.610991977786216   0.375000000000000   1.0000000
N2   N   0.722293070557178   0.111040262776158   0.375000000000000   1.0000000
N2   N   0.055554764383126   0.777778568950210   0.875000000000000   1.0000000
N2   N   0.388890708237227   0.777780624696103   0.875000000000000   1.0000000
N2   N   0.222219335425227   0.277776334379281   0.875000000000000   1.0000000
N2   N   0.722225188805941   0.777782939735259   0.875000000000000   1.0000000
N2   N   0.555556998954055   0.277776334379281   0.875000000000000   1.0000000
N2   N   0.888888116405159   0.277776232810325   0.875000000000000   1.0000000
N2   N   0.222253775267337   0.777793554300336   0.375000000000000   1.0000000
N2   N   0.055093849655125   0.277613411595605   0.375000000000000   1.0000000
N2   N   0.386680517564897   0.273361035129801   0.375000000000000   1.0000000
N2   N   0.555719921737730   0.778239483678211   0.375000000000000   1.0000000
N2   N   0.888964791005519   0.777882621989548   0.375000000000000   1.0000000
N2   N   0.722519561940481   0.277613411595605   0.375000000000000   1.0000000
N2   N   0.055552708637232   0.944443416874460   0.875000000000000   1.0000000
N2   N   0.388890708237227   0.944443416874460   0.875000000000000   1.0000000
N2   N   0.222219881188827   0.444443909023313   0.875000000000000   1.0000000
N2   N   0.555558991771314   0.444446162552321   0.875000000000000   1.0000000
N2   N   0.722223642200889   0.944447284401777   0.875000000000000   1.0000000
N2   N   0.888889916458869   0.444442625096101   0.875000000000000   1.0000000
N2   N   0.055450711343787   0.444415502349306   0.375000000000000   1.0000000
N2   N   0.222341355547119   0.944682711094238   0.375000000000000   1.0000000
N2   N   0.555607285987345   0.944470309660337   0.375000000000000   1.0000000
N2   N   0.386680517564897   0.446652815768431   0.375000000000000   1.0000000
N2   N   0.888863023672992   0.944470309660337   0.375000000000000   1.0000000
N2   N   0.722308930839842   0.444153897186362   0.375000000000000   1.0000000
N2   N   0.222222275563810   0.611111057769526   0.875000000000000   1.0000000
N2   N   0.055550393598077   0.111108144527394   0.875000000000000   1.0000000
N2   N   0.555556998954055   0.611113997908109   0.875000000000000   1.0000000
N2   N   0.388889424310015   0.111109305498849   0.875000000000000   1.0000000
N2   N   0.888888782205708   0.611111057769526   0.875000000000000   1.0000000
N2   N   0.055539779033000   0.611079558065999   0.375000000000000   1.0000000
N2   N   0.722223642200889   0.111109691132447   0.875000000000000   1.0000000
N2   N   0.221844966346520   0.111024402493494   0.375000000000000   1.0000000
N2   N   0.389179436146967   0.611488366986815   0.375000000000000   1.0000000
N2   N   0.722308930839842   0.611488366986815   0.375000000000000   1.0000000
N2   N   0.555719921737730   0.110813771392855   0.375000000000000   1.0000000
N2   N   0.388889424310015   0.611113452144509   0.875000000000000   1.0000000
N2   N   0.888747192218973   0.111040262776158   0.375000000000000   1.0000000
N2   N   0.222223804567083   0.777778568950210   0.875000000000000   1.0000000
N2   N   0.055550393598077   0.277775582404019   0.875000000000000   1.0000000
N2   N   0.388887170781007   0.277774341562022   0.875000000000000   1.0000000
N2   N   0.555557750929317   0.777782939735259   0.875000000000000   1.0000000
N2   N   0.888889916458869   0.777780624696103   0.875000000000000   1.0000000
N2   N   0.722225188805941   0.277775582404019   0.875000000000000   1.0000000
N2   N   0.055539779033000   0.777793554300336   0.375000000000000   1.0000000
N2   N   0.388917830984022   0.777882621989548   0.375000000000000   1.0000000
N2   N   0.220965952471678   0.277149642902507   0.375000000000000   1.0000000
N2   N   0.722519561940481   0.778239483678211   0.375000000000000   1.0000000
N2   N   0.556183690430829   0.277149642902507   0.375000000000000   1.0000000
N2   N   0.888863023672992   0.277726047345990   0.375000000000000   1.0000000
N2   N   0.055552708637232   0.444442625096101   0.875000000000000   1.0000000
N2   N   0.222222275563810   0.944444551127620   0.875000000000000   1.0000000
N2   N   0.555557100523011   0.944445216928169   0.875000000000000   1.0000000
N2   N   0.388887170781007   0.444446162552321   0.875000000000000   1.0000000
N2   N   0.888888116405159   0.944445216928169   0.875000000000000   1.0000000
N2   N   0.055450711343787   0.944368542327810   0.375000000000000   1.0000000
N2   N   0.722224027834486   0.444443909023313   0.875000000000000   1.0000000
N2   N   0.388917830984022   0.944368542327810   0.375000000000000   1.0000000
N2   N   0.221844966346520   0.444153897186362   0.375000000000000   1.0000000
N2   N   0.222341355547119   0.610991977786216   0.375000000000000   1.0000000
N2   N   0.559972298203534   0.446652815768431   0.375000000000000   1.0000000
N2   N   0.722293070557178   0.944586141114356   0.375000000000000   1.0000000
N2   N   0.888964791005519   0.444415502349306   0.375000000000000   1.0000000
N2   N   0.055554764383126   0.611109528766252   0.875000000000000   1.0000000
N2   N   0.222219881188827   0.111109305498849   0.875000000000000   1.0000000
N2   N   0.722224027834486   0.611113452144509   0.875000000000000   1.0000000
N2   N   0.555557750929317   0.111108144527394   0.875000000000000   1.0000000
N2   N   0.888886048931551   0.111109691132447   0.875000000000000   1.0000000
B2   B   0.110236392881720   0.055039907636791   0.375000000000000   1.0000000
B2   B   0.611779403578018   0.557930634443063   0.375000000000000   1.0000000
B2   B   0.444803514755071   0.055039907636791   0.375000000000000   1.0000000
B2   B   0.944518591293892   0.555489134095047   0.375000000000000   1.0000000
B2   B   0.777777777777779   0.055555555555557   0.375000000000000   1.0000000
B2   B   0.111111111111114   0.722222222222221   0.875000000000000   1.0000000
B2   B   0.444451600816207   0.722240319689717   0.875000000000000   1.0000000
B2   B   0.277761556598749   0.222210282042164   0.875000000000000   1.0000000
B2   B   0.777788718873510   0.722240319689717   0.875000000000000   1.0000000
B2   B   0.611122325652970   0.222211007680365   0.875000000000000   1.0000000
B2   B   0.944432929936221   0.222215488623904   0.875000000000000   1.0000000
B2   B   0.277844199238289   0.722362790532181   0.375000000000000   1.0000000
B2   B   0.109323426789912   0.221328380061620   0.375000000000000   1.0000000
B2   B   0.446151230865044   0.221553929755317   0.375000000000000   1.0000000
B2   B   0.612004953271715   0.724009906543424   0.375000000000000   1.0000000
B2   B   0.944518591293892   0.722362790532181   0.375000000000000   1.0000000
B2   B   0.778032487928072   0.221926084751020   0.375000000000000   1.0000000
B2   B   0.111105195756108   0.888884418194538   0.875000000000000   1.0000000
B2   B   0.444451327365497   0.888892330349413   0.875000000000000   1.0000000
B2   B   0.277761556598749   0.388884607889913   0.875000000000000   1.0000000
B2   B   0.611123051291171   0.388884607889913   0.875000000000000   1.0000000
B2   B   0.777782558687683   0.888900403397108   0.875000000000000   1.0000000
B2   B   0.944441002983916   0.388882005967832   0.875000000000000   1.0000000
B2   B   0.110236392881720   0.388529818578258   0.375000000000000   1.0000000
B2   B   0.277844199238289   0.888814742039437   0.375000000000000   1.0000000
B2   B   0.611407248582316   0.889439736510380   0.375000000000000   1.0000000
B2   B   0.944374016460046   0.888959316873283   0.375000000000000   1.0000000
B2   B   0.778293425696545   0.388529818578258   0.375000000000000   1.0000000
B2   B   0.277771490161405   0.555561843171931   0.875000000000000   1.0000000
B2   B   0.111093013643619   0.055544614459826   0.875000000000000   1.0000000
B2   B   0.611123051291171   0.555571776734587   0.875000000000000   1.0000000
B2   B   0.444451600816207   0.055544614459826   0.875000000000000   1.0000000
B2   B   0.944448915138790   0.555554110894898   0.875000000000000   1.0000000
B2   B   0.110970542801155   0.555489134095047   0.375000000000000   1.0000000
B2   B   0.777777777777779   0.055555555555557   0.875000000000000   1.0000000
B2   B   0.277623464056808   0.055246928113617   0.375000000000000   1.0000000
B2   B   0.446151230865044   0.557930634443063   0.375000000000000   1.0000000
B2   B   0.778086405219719   0.555709869276527   0.375000000000000   1.0000000
B2   B   0.611407248582316   0.055300845405264   0.375000000000000   1.0000000
B2   B   0.444448725443415   0.555571776734587   0.875000000000000   1.0000000
B2   B   0.943893596822948   0.055300845405264   0.375000000000000   1.0000000
B2   B   0.277779222438438   0.722228137577228   0.875000000000000   1.0000000
B2   B   0.111088682027402   0.222211007680365   0.875000000000000   1.0000000
B2   B   0.444448725443415   0.222210282042164   0.875000000000000   1.0000000
B2   B   0.611122325652970   0.722244651305934   0.875000000000000   1.0000000
B2   B   0.944448915138790   0.722228137577228   0.875000000000000   1.0000000
B2   B   0.777782558687683   0.222215488623904   0.875000000000000   1.0000000
B2   B   0.111111111111114   0.722222222222221   0.375000000000000   1.0000000
B2   B   0.444803514755071   0.723096940451615   0.375000000000000   1.0000000
B2   B   0.275402698890273   0.221553929755317   0.375000000000000   1.0000000
B2   B   0.778293425696545   0.723096940451615   0.375000000000000   1.0000000
B2   B   0.612004953271715   0.221328380061620   0.375000000000000   1.0000000
B2   B   0.943893596822948   0.221926084751020   0.375000000000000   1.0000000
B2   B   0.111093013643619   0.388881732517122   0.875000000000000   1.0000000
B2   B   0.277779222438438   0.888884418194538   0.875000000000000   1.0000000
B2   B   0.611117844709432   0.888900403397108   0.875000000000000   1.0000000
B2   B   0.444444444444443   0.388888888888886   0.875000000000000   1.0000000
B2   B   0.944441002983916   0.888892330349413   0.875000000000000   1.0000000
B2   B   0.110970542801155   0.888814742039437   0.375000000000000   1.0000000
B2   B   0.777788718873510   0.388881732517122   0.875000000000000   1.0000000
B2   B   0.444585300413237   0.888959316873283   0.375000000000000   1.0000000
B2   B   0.275402698890273   0.387182102468285   0.375000000000000   1.0000000
B2   B   0.277623464056808   0.555709869276527   0.375000000000000   1.0000000
B2   B   0.611779403578018   0.387182102468285   0.375000000000000   1.0000000
B2   B   0.778032487928072   0.889439736510380   0.375000000000000   1.0000000
B2   B   0.944374016460046   0.388748032920091   0.375000000000000   1.0000000
B2   B   0.111105195756108   0.555554110894898   0.875000000000000   1.0000000
B2   B   0.277771490161405   0.055542980322810   0.875000000000000   1.0000000
B2   B   0.777790353010526   0.555561843171931   0.875000000000000   1.0000000
B2   B   0.611117844709432   0.055550774645653   0.875000000000000   1.0000000
B2   B   0.944432929936221   0.055550774645653   0.875000000000000   1.0000000
B2   B   0.055503664711172   0.111066644186331   0.124843065070459   1.0000000
B2   B   0.555587397471592   0.611174794943184   0.124917876878514   1.0000000
B2   B   0.388880656950066   0.111045101195526   0.124910896130296   1.0000000
B2   B   0.888957079098820   0.611145206216082   0.124896254989384   1.0000000
B2   B   0.722228799808636   0.111104533524699   0.124892624920402   1.0000000
B2   B   0.055565856216173   0.777767477117162   0.625097541432364   1.0000000
B2   B   0.388868522292772   0.777798609502871   0.625115961114576   1.0000000
B2   B   0.222158538390151   0.277745935861744   0.625082123121486   1.0000000
B2   B   0.722266689147005   0.777829668622164   0.625156934929541   1.0000000
B2   B   0.555587397471592   0.277745935861744   0.625082123121486   1.0000000
B2   B   0.888893906263723   0.277787812527453   0.625113083564772   1.0000000
B2   B   0.222201620900989   0.777767477117162   0.124902458567636   1.0000000
B2   B   0.055503664711172   0.277770353858176   0.124843065070459   1.0000000
B2   B   0.388919711316695   0.277839422633397   0.125053259278993   1.0000000
B2   B   0.555562979475160   0.777829668622164   0.124843065070459   1.0000000
B2   B   0.888930087210091   0.777798609502871   0.124884038885424   1.0000000
B2   B   0.722266689147005   0.277770353858176   0.124843065070459   1.0000000
B2   B   0.055534723830465   0.944403246123238   0.625115961114576   1.0000000
B2   B   0.388868522292772   0.944403246123238   0.625115961114576   1.0000000
B2   B   0.222164444245453   0.444452676383263   0.625089103869704   1.0000000
B2   B   0.555493910699939   0.444413622016634   0.624946740721006   1.0000000
B2   B   0.722228799808636   0.944457599617273   0.625107375079598   1.0000000
B2   B   0.888930087210091   0.444464811040556   0.625115961114576   1.0000000
B2   B   0.055534723830465   0.444464811040556   0.124884038885424   1.0000000
B2   B   0.222188127117254   0.944376254234509   0.124896254989384   1.0000000
B2   B   0.555545520805882   0.944439427069605   0.124886916435229   1.0000000
B2   B   0.388919711316695   0.444413622016634   0.125053259278993   1.0000000
B2   B   0.888893906263723   0.944439427069605   0.124886916435229   1.0000000
B2   B   0.722288232137809   0.444452676383263   0.124910896130296   1.0000000
B2   B   0.222188127117254   0.611145206216082   0.625103745010616   1.0000000
B2   B   0.055503664711172   0.111066644186331   0.625156934929541   1.0000000
B2   B   0.555587397471592   0.611174794943184   0.625082123121486   1.0000000
B2   B   0.388880656950066   0.111045101195526   0.625089103869704   1.0000000
B2   B   0.888957079098820   0.611145206216082   0.625103745010616   1.0000000
B2   B   0.055565856216173   0.611131712432347   0.124902458567636   1.0000000
B2   B   0.722228799808636   0.111104533524699   0.625107375079598   1.0000000
B2   B   0.222164444245453   0.111045101195526   0.124910896130296   1.0000000
B2   B   0.388880656950066   0.611168889087882   0.124910896130296   1.0000000
B2   B   0.722288232137809   0.611168889087882   0.124910896130296   1.0000000
B2   B   0.555562979475160   0.111066644186331   0.124843065070459   1.0000000
B2   B   0.388880656950066   0.611168889087882   0.625089103869704   1.0000000
B2   B   0.888875733716055   0.111104533524699   0.124892624920402   1.0000000
B2   B   0.222201620900989   0.777767477117162   0.625097541432364   1.0000000
B2   B   0.055503664711172   0.277770353858176   0.625156934929541   1.0000000
B2   B   0.388919711316695   0.277839422633397   0.624946740721006   1.0000000
B2   B   0.555562979475160   0.777829668622164   0.625156934929541   1.0000000
B2   B   0.888930087210091   0.777798609502871   0.625115961114576   1.0000000
B2   B   0.722266689147005   0.277770353858176   0.625156934929541   1.0000000
B2   B   0.055565856216173   0.777767477117162   0.124902458567636   1.0000000
B2   B   0.388868522292772   0.777798609502871   0.124884038885424   1.0000000
B2   B   0.222158538390151   0.277745935861744   0.124917876878514   1.0000000
B2   B   0.722266689147005   0.777829668622164   0.124843065070459   1.0000000
B2   B   0.555587397471592   0.277745935861744   0.124917876878514   1.0000000
B2   B   0.888893906263723   0.277787812527453   0.124886916435229   1.0000000
B2   B   0.055534723830465   0.444464811040556   0.625115961114576   1.0000000
B2   B   0.222188127117254   0.944376254234509   0.625103745010616   1.0000000
B2   B   0.555545520805882   0.944439427069605   0.625113083564772   1.0000000
B2   B   0.388919711316695   0.444413622016634   0.624946740721006   1.0000000
B2   B   0.888893906263723   0.944439427069605   0.625113083564772   1.0000000
B2   B   0.055534723830465   0.944403246123238   0.124884038885424   1.0000000
B2   B   0.722288232137809   0.444452676383263   0.625089103869704   1.0000000
B2   B   0.388868522292772   0.944403246123238   0.124884038885424   1.0000000
B2   B   0.222164444245453   0.444452676383263   0.124910896130296   1.0000000
B2   B   0.222188127117254   0.611145206216082   0.124896254989384   1.0000000
B2   B   0.555493910699939   0.444413622016634   0.125053259278993   1.0000000
B2   B   0.722228799808636   0.944457599617273   0.124892624920402   1.0000000
B2   B   0.888930087210091   0.444464811040556   0.124884038885424   1.0000000
B2   B   0.055565856216173   0.611131712432347   0.625097541432364   1.0000000
B2   B   0.222164444245453   0.111045101195526   0.625089103869704   1.0000000
B2   B   0.722288232137809   0.611168889087882   0.625089103869704   1.0000000
B2   B   0.555562979475160   0.111066644186331   0.625156934929541   1.0000000
B2   B   0.888875733716055   0.111104533524699   0.625107375079598   1.0000000


