data_1
_audit_creation_method   'vasp2cif'
_cell_length_a    17.52789999999977
_cell_length_b    17.52789999999977
_cell_length_c    15.0
_cell_angle_alpha    90.0
_cell_angle_beta    90.0
_cell_angle_gamma    119.99999999999916

_symmetry_space_group_name_H-M    'P 1'
loop_
_atom_site_label
_atom_site_type_symbol
_atom_site_fract_x
_atom_site_fract_y
_atom_site_fract_z
_atom_site_occupancy
B2   B   0.909439340273419   0.954190272050688   0.110659557256985   1.0000000
B2   B   0.908649247537985   0.095814332118849   0.110775441445382   1.0000000
B2   B   0.908418677203140   0.237856386173491   0.110750068536478   1.0000000
B2   B   0.908663660957574   0.380451721339849   0.110652248496690   1.0000000
B2   B   0.908841716951879   0.523501657062579   0.110759003164486   1.0000000
B2   B   0.908763958014822   0.666526120260928   0.110817040728750   1.0000000
B2   B   0.906429240356437   0.808833001675040   0.110729983766453   1.0000000
B2   B   0.050859480050444   0.953706635559763   0.110697279104087   1.0000000
B2   B   0.052074699751076   0.096869493201283   0.110801992679805   1.0000000
B2   B   0.051199375850658   0.238572396677931   0.110867175691641   1.0000000
B2   B   0.050260421960432   0.381264853358748   0.110720809860870   1.0000000
B2   B   0.049516598404971   0.524655347651975   0.110662228442239   1.0000000
B2   B   0.049916529824938   0.668003154206064   0.110744509352719   1.0000000
B2   B   0.050020244254422   0.810903104813835   0.110765122467273   1.0000000
B2   B   0.193471436961051   0.954688167795719   0.110737653582199   1.0000000
B2   B   0.195241662967389   0.098205917033066   0.110746445764532   1.0000000
B2   B   0.194881744551537   0.239915588252681   0.110782569550334   1.0000000
B2   B   0.192363290393256   0.381698545968821   0.110686792127068   1.0000000
B2   B   0.189618215629654   0.525329141310266   0.110672769047347   1.0000000
B2   B   0.190398318544300   0.668924977568723   0.110710758973537   1.0000000
B2   B   0.192251771295685   0.811816130230242   0.110727108456634   1.0000000
B2   B   0.335660273082878   0.954697859996747   0.110714481445213   1.0000000
B2   B   0.337183462689785   0.097935431243019   0.110766967928970   1.0000000
B2   B   0.340400490698589   0.243227784215452   0.110820018591991   1.0000000
B2   B   0.336714885054406   0.381368137955759   0.110695134226568   1.0000000
B2   B   0.328492318697087   0.527618435238573   0.110680128651358   1.0000000
B2   B   0.329930780285819   0.670304630577099   0.110721896735460   1.0000000
B2   B   0.334236474513217   0.812356797091884   0.110780329781141   1.0000000
B2   B   0.478079380012091   0.953492406069851   0.110732009152283   1.0000000
B2   B   0.479235820994115   0.095694701971799   0.110728548001705   1.0000000
B2   B   0.481105879920871   0.238368242916536   0.110868561144515   1.0000000
B2   B   0.488018993457166   0.383690293074742   0.110993448913161   1.0000000
B2   B   0.467638281892707   0.668049363635006   0.110722221645230   1.0000000
B2   B   0.476763805995577   0.811229541949087   0.110804872045211   1.0000000
B2   B   0.621216690955874   0.954175276863535   0.110766612531411   1.0000000
B2   B   0.621991554692469   0.094792023987334   0.110677493926373   1.0000000
B2   B   0.623194874664943   0.235398247656579   0.110716093721600   1.0000000
B2   B   0.625331677024402   0.374650571994436   0.110850763522271   1.0000000
B2   B   0.624806813690532   0.510687602604992   0.110996160485907   1.0000000
B2   B   0.621618065271019   0.814338206679411   0.110722510037208   1.0000000
B2   B   0.765413870758297   0.953717414656453   0.110683459746122   1.0000000
B2   B   0.765273405093336   0.095222650640874   0.110695713712808   1.0000000
B2   B   0.765857147988158   0.236900802095827   0.110644799241811   1.0000000
B2   B   0.767026841551049   0.378657287823427   0.110675171286017   1.0000000
B2   B   0.767745504270140   0.520863355060314   0.110755024951804   1.0000000
B2   B   0.765451597609154   0.661644686527545   0.110776932738386   1.0000000
B2   B   0.767170212623963   0.813025985097298   0.110710569869338   1.0000000
Al2   Al   0.618128600535962   0.661512171977245   0.110863794320026   1.0000000
N2   N   0.955114611382723   0.904890285872520   0.110650870581811   1.0000000
N2   N   0.956989064518900   0.049128072390000   0.110727751532910   1.0000000
N2   N   0.956419393152245   0.190876927807991   0.110831260055890   1.0000000
N2   N   0.956014876680809   0.333015342597390   0.110695734500193   1.0000000
N2   N   0.955530386325052   0.475769981474672   0.110662680190452   1.0000000
N2   N   0.955567317046482   0.618938713991524   0.110778906482322   1.0000000
N2   N   0.954647507627550   0.761985300730581   0.110762349497462   1.0000000
N2   N   0.098205797482320   0.906312947125848   0.110717270573110   1.0000000
N2   N   0.099652249753065   0.049667472130062   0.110720280298267   1.0000000
N2   N   0.100011677587849   0.192335711725025   0.110850977891292   1.0000000
N2   N   0.098490407476292   0.334008806321116   0.110757598489449   1.0000000
N2   N   0.096310763264217   0.476569177425226   0.110648291685616   1.0000000
N2   N   0.096472273217103   0.619974578006408   0.110683218203733   1.0000000
N2   N   0.097335435576807   0.763299364095984   0.110739547753667   1.0000000
N2   N   0.240579170126137   0.906917360039155   0.110709275154387   1.0000000
N2   N   0.242002546115962   0.050269109468514   0.110731841408467   1.0000000
N2   N   0.244413130794694   0.194781878219511   0.110735376627677   1.0000000
N2   N   0.242782535917018   0.336146115626046   0.110671626786600   1.0000000
N2   N   0.236793306430143   0.477159312613434   0.110657022316057   1.0000000
N2   N   0.236679902037057   0.620549394056560   0.110665208368020   1.0000000
N2   N   0.239349949755033   0.763923376004665   0.110722395446273   1.0000000
N2   N   0.382912513380481   0.906815323728007   0.110718235430274   1.0000000
N2   N   0.384053952322080   0.049674106537064   0.110721302685700   1.0000000
N2   N   0.385885920455182   0.193718669207255   0.110783739759405   1.0000000
N2   N   0.390572412620453   0.341829201747423   0.110895616876323   1.0000000
N2   N   0.378257859744392   0.480553442611174   0.110583366460381   1.0000000
N2   N   0.375346030846864   0.621219237731660   0.110715315697487   1.0000000
N2   N   0.381386617074339   0.764281866619593   0.110759278111757   1.0000000
N2   N   0.525544431052226   0.905598268776193   0.110778952348272   1.0000000
N2   N   0.526619961689688   0.048008831528657   0.110684607564234   1.0000000
N2   N   0.527912874936479   0.190336969198908   0.110739040292651   1.0000000
N2   N   0.531371174813782   0.333291205171454   0.111017403238319   1.0000000
N2   N   0.462514889744894   0.523694730431102   0.110469674238960   1.0000000
N2   N   0.502747499537644   0.608206200229473   0.110561952297272   1.0000000
N2   N   0.523749308959536   0.761860046422492   0.110757573981481   1.0000000
N2   N   0.669174040348448   0.907753984849522   0.110709068040432   1.0000000
N2   N   0.669807672892689   0.048095191255577   0.110690529464496   1.0000000
N2   N   0.670719686713160   0.188862248854846   0.110638455340563   1.0000000
N2   N   0.672557916449622   0.329091580625615   0.110727054862632   1.0000000
N2   N   0.672759239094497   0.467654909817824   0.110701307549572   1.0000000
N2   N   0.670328719038067   0.603083428257686   0.110755011025102   1.0000000
N2   N   0.673159512236843   0.772983545891966   0.110724347841508   1.0000000
N2   N   0.814521424420561   0.907296620295888   0.110623593875343   1.0000000
N2   N   0.813286965565464   0.048248381574602   0.110707931371556   1.0000000
N2   N   0.813501534228034   0.189916451911861   0.110674610151060   1.0000000
N2   N   0.814218513934716   0.331797790888989   0.110606918851620   1.0000000
N2   N   0.814477509657502   0.473978439570327   0.110727742234334   1.0000000
N2   N   0.814180667897544   0.616473678482469   0.110795012599006   1.0000000
N2   N   0.809752494229691   0.759211565258717   0.110730727325174   1.0000000


