data_1
_audit_creation_method   'vasp2cif'
_cell_length_a    17.52789999999977
_cell_length_b    17.52789999999977
_cell_length_c    15.0
_cell_angle_alpha    90.0
_cell_angle_beta    90.0
_cell_angle_gamma    119.99999999999916

_symmetry_space_group_name_H-M    'P 1'
loop_
_atom_site_label
_atom_site_type_symbol
_atom_site_fract_x
_atom_site_fract_y
_atom_site_fract_z
_atom_site_occupancy
B2   B   0.906050820539078   0.953288208637757   0.111025637702074   1.0000000
B2   B   0.904745768180679   0.095256253015317   0.111017220009574   1.0000000
B2   B   0.904306773161728   0.237867733426366   0.111042750023283   1.0000000
B2   B   0.904745768180679   0.380918208856359   0.111017220009574   1.0000000
B2   B   0.906050820539078   0.524193017149323   0.111025637702074   1.0000000
B2   B   0.906090644603269   0.667342823178995   0.111056481676065   1.0000000
B2   B   0.906090644603269   0.810178226672275   0.111056481676065   1.0000000
B2   B   0.047870118920040   0.952131902275963   0.111024768600074   1.0000000
B2   B   0.046713812558246   0.093951200656918   0.111025637702074   1.0000000
B2   B   0.045972920876263   0.236842343302275   0.111010408922366   1.0000000
B2   B   0.045972920876263   0.380560982820988   0.111010408922366   1.0000000
B2   B   0.046713812558246   0.524193017149323   0.111025637702074   1.0000000
B2   B   0.047870118920040   0.667170333448074   0.111024768600074   1.0000000
B2   B   0.048084485508241   0.809758301156122   0.111008678638575   1.0000000
B2   B   0.190243720039880   0.951917535687762   0.111008678638575   1.0000000
B2   B   0.189823794523728   0.093911376592727   0.111056481676065   1.0000000
B2   B   0.186824449568701   0.234097657069513   0.111031205207814   1.0000000
B2   B   0.186516971587397   0.378973688417198   0.111021098310748   1.0000000
B2   B   0.186824449568701   0.524157197747190   0.111031205207814   1.0000000
B2   B   0.189823794523728   0.667342823178995   0.111056481676065   1.0000000
B2   B   0.190243720039880   0.809758301156122   0.111008678638575   1.0000000
B2   B   0.332831687748924   0.952131902275963   0.111024768600074   1.0000000
B2   B   0.332659198018002   0.093911376592727   0.111056481676065   1.0000000
B2   B   0.332140779496101   0.235709943042204   0.111039804228305   1.0000000
B2   B   0.325009383720601   0.372570034939880   0.111030552264247   1.0000000
B2   B   0.325009383720601   0.523869754027722   0.111030552264247   1.0000000
B2   B   0.332140779496101   0.667861241700897   0.111039804228305   1.0000000
B2   B   0.332659198018002   0.810178226672275   0.111056481676065   1.0000000
B2   B   0.475809004047676   0.953288208637757   0.111025637702074   1.0000000
B2   B   0.475809004047676   0.093951200656918   0.111025637702074   1.0000000
B2   B   0.475844823449808   0.234097657069513   0.111031205207814   1.0000000
B2   B   0.476132267169277   0.372570034939880   0.111030552264247   1.0000000
B2   B   0.476132267169277   0.674992637476397   0.111030552264247   1.0000000
B2   B   0.475844823449808   0.813177571627302   0.111031205207814   1.0000000
B2   B   0.619441038375015   0.954029100319740   0.111010408922366   1.0000000
B2   B   0.619083812339644   0.095256253015317   0.111017220009574   1.0000000
B2   B   0.619441038375015   0.236842343302275   0.111010408922366   1.0000000
B2   B   0.621028332778805   0.378973688417198   0.111021098310748   1.0000000
B2   B   0.627431986256124   0.523869754027722   0.111030552264247   1.0000000
B2   B   0.627431986256124   0.674992637476397   0.111030552264247   1.0000000
B2   B   0.621028332778805   0.813485049608607   0.111021098310748   1.0000000
B2   B   0.763159677893728   0.954029100319740   0.111010408922366   1.0000000
B2   B   0.762134287769638   0.095695248034269   0.111042750023283   1.0000000
B2   B   0.762134287769638   0.237867733426366   0.111042750023283   1.0000000
B2   B   0.763159677893728   0.380560982820988   0.111010408922366   1.0000000
B2   B   0.765904364126491   0.524157197747190   0.111031205207814   1.0000000
B2   B   0.764292078153799   0.667861241700897   0.111039804228305   1.0000000
B2   B   0.765904364126491   0.813177571627302   0.111031205207814   1.0000000
N2   N   0.952926384254339   0.905033843636722   0.111020805574157   1.0000000
N2   N   0.952341881557454   0.047659520360551   0.110996233189717   1.0000000
N2   N   0.951608323169267   0.190083841289510   0.111005819528075   1.0000000
N2   N   0.951608323169267   0.332951463997756   0.111005819528075   1.0000000
N2   N   0.952341881557454   0.476109343314902   0.110996233189717   1.0000000
N2   N   0.952926384254339   0.619321234292612   0.111020805574157   1.0000000
N2   N   0.953046782228868   0.762237737951935   0.111032837121716   1.0000000
N2   N   0.095342351705301   0.904659050212697   0.110985309330339   1.0000000
N2   N   0.094967558281276   0.047075017663667   0.111020805574157   1.0000000
N2   N   0.093030070158050   0.188555613861013   0.111004516350528   1.0000000
N2   N   0.092819732660004   0.332124213167003   0.110991307195333   1.0000000
N2   N   0.093030070158050   0.475903149971038   0.111004516350528   1.0000000
N2   N   0.094967558281276   0.619321234292612   0.111020805574157   1.0000000
N2   N   0.095342351705301   0.762113706723609   0.110985309330339   1.0000000
N2   N   0.237887695194396   0.904659050212697   0.110985309330339   1.0000000
N2   N   0.237763663966070   0.046954619689138   0.111032837121716   1.0000000
N2   N   0.237177548396721   0.189189505953286   0.111033465033554   1.0000000
N2   N   0.232280428321752   0.328604790334900   0.111013700516630   1.0000000
N2   N   0.232280428321752   0.475104331660847   0.111013700516630   1.0000000
N2   N   0.237177548396721   0.619416736118431   0.111033465033554   1.0000000
N2   N   0.237763663966070   0.762237737951935   0.111032837121716   1.0000000
N2   N   0.380680167625386   0.905033843636722   0.111020805574157   1.0000000
N2   N   0.380680167625386   0.047075017663667   0.111020805574157   1.0000000
N2   N   0.380584665799568   0.189189505953286   0.111033465033554   1.0000000
N2   N   0.380365578255885   0.332158448268767   0.111013859971830   1.0000000
N2   N   0.360226555241416   0.465827624457705   0.110987223384950   1.0000000
N2   N   0.380365578255885   0.619635823662114   0.111013859971830   1.0000000
N2   N   0.380584665799568   0.762823853521284   0.111033465033554   1.0000000
N2   N   0.524098251945958   0.906971331759948   0.111004516350528   1.0000000
N2   N   0.523892058602095   0.047659520360551   0.110996233189717   1.0000000
N2   N   0.524098251945958   0.188555613861013   0.111004516350528   1.0000000
N2   N   0.524897070256150   0.328604790334900   0.111013700516630   1.0000000
N2   N   0.534173777459291   0.465827624457705   0.110987223384950   1.0000000
N2   N   0.534173777459291   0.639774846676583   0.110987223384950   1.0000000
N2   N   0.524897070256150   0.767720973596254   0.111013700516630   1.0000000
N2   N   0.667877188749995   0.907181669257995   0.110991307195333   1.0000000
N2   N   0.667049937919240   0.048393078748739   0.111005819528075   1.0000000
N2   N   0.667049937919240   0.190083841289510   0.111005819528075   1.0000000
N2   N   0.667877188749995   0.332124213167003   0.110991307195333   1.0000000
N2   N   0.671396611582097   0.475104331660847   0.111013700516630   1.0000000
N2   N   0.667842953648230   0.619635823662114   0.111013859971830   1.0000000
N2   N   0.671396611582097   0.767720973596254   0.111013700516630   1.0000000
N2   N   0.811445788056986   0.906971331759948   0.111004516350528   1.0000000
N2   N   0.809917560628489   0.048393078748739   0.111005819528075   1.0000000
N2   N   0.809525273905997   0.190476128012001   0.111038793106454   1.0000000
N2   N   0.809917560628489   0.332951463997756   0.111005819528075   1.0000000
N2   N   0.811445788056986   0.475903149971038   0.111004516350528   1.0000000
N2   N   0.810811895964713   0.619416736118431   0.111033465033554   1.0000000
N2   N   0.810811895964713   0.762823853521284   0.111033465033554   1.0000000
Se2   Se   0.476191212381998   0.523810808815000   0.111042380227144   1.0000000


