data_1
_audit_creation_method   'vasp2cif'
_cell_length_a    17.52789999999977
_cell_length_b    17.52789999999977
_cell_length_c    15.0
_cell_angle_alpha    90.0
_cell_angle_beta    90.0
_cell_angle_gamma    119.99999999999916

_symmetry_space_group_name_H-M    'P 1'
loop_
_atom_site_label
_atom_site_type_symbol
_atom_site_fract_x
_atom_site_fract_y
_atom_site_fract_z
_atom_site_occupancy
B2   B   0.905565109132841   0.950567061821905   0.110756726456055   1.0000000
B2   B   0.907977239451226   0.094643262055496   0.110760515241540   1.0000000
B2   B   0.908771152918016   0.237746376089950   0.110737469513483   1.0000000
B2   B   0.908729016846590   0.380736707068112   0.110722286200879   1.0000000
B2   B   0.907061337725584   0.523491830545150   0.110748536370612   1.0000000
B2   B   0.904066363598386   0.665558066738037   0.110743997268189   1.0000000
B2   B   0.903271241253284   0.806806838339289   0.110720983778239   1.0000000
B2   B   0.049632080221193   0.953260094549837   0.110714156122414   1.0000000
B2   B   0.051654511445446   0.096680156597840   0.110765409887905   1.0000000
B2   B   0.052369856722765   0.239241245493310   0.110786725986423   1.0000000
B2   B   0.051673741509102   0.381714459758551   0.110770554490276   1.0000000
B2   B   0.049887158473911   0.524562659281696   0.110740849198896   1.0000000
B2   B   0.048380622657450   0.667331143185631   0.110749223471907   1.0000000
B2   B   0.048360706042220   0.810038044546380   0.110715456129612   1.0000000
B2   B   0.192916821224339   0.954571317048480   0.110710456330853   1.0000000
B2   B   0.196123864061431   0.099658692464483   0.110722761045716   1.0000000
B2   B   0.197805763626431   0.242774479858134   0.110763928688539   1.0000000
B2   B   0.195954880411438   0.383630763735179   0.110749351805655   1.0000000
B2   B   0.192526444090185   0.525713146152368   0.110745670449480   1.0000000
B2   B   0.191396230200960   0.668357542307014   0.110739924834609   1.0000000
B2   B   0.191751780838608   0.811177779075410   0.110728858869008   1.0000000
B2   B   0.335652445447185   0.954431771055251   0.110726744892132   1.0000000
B2   B   0.337423794939230   0.098453026050665   0.110735701491880   1.0000000
B2   B   0.344038363185899   0.247145834693682   0.110745044380888   1.0000000
B2   B   0.344403017675842   0.389058844424146   0.110754112922343   1.0000000
B2   B   0.335198788167472   0.529020133666653   0.110697606219116   1.0000000
B2   B   0.333794496066999   0.669627333243830   0.110756885643043   1.0000000
B2   B   0.334634516942519   0.811653144464602   0.110756212304217   1.0000000
B2   B   0.478505615421995   0.953203439815210   0.110754591533527   1.0000000
B2   B   0.479558459087052   0.095811863523646   0.110771742904036   1.0000000
B2   B   0.481432761131580   0.239115235440095   0.110758230885557   1.0000000
B2   B   0.497820640890503   0.393842135012353   0.110701677820326   1.0000000
B2   B   0.475519146539750   0.669194143764180   0.110652020157025   1.0000000
B2   B   0.477408696522584   0.810936680635648   0.110746049036652   1.0000000
B2   B   0.621294226253028   0.950876384757485   0.110735361632219   1.0000000
B2   B   0.622327326543952   0.094131309210415   0.110761541650503   1.0000000
B2   B   0.623271688388929   0.236695555293538   0.110752849826318   1.0000000
B2   B   0.625282744955827   0.378659474878656   0.110751736797912   1.0000000
B2   B   0.607641272689075   0.505424407157068   0.110659556593947   1.0000000
B2   B   0.618954036720526   0.806164970650318   0.110718834553381   1.0000000
B2   B   0.763499258164288   0.950161464323387   0.110750731523360   1.0000000
B2   B   0.765132363580985   0.093975867241364   0.110751458166996   1.0000000
B2   B   0.765931307894766   0.237068289112055   0.110730088968857   1.0000000
B2   B   0.766559087853968   0.379964524909091   0.110718140901882   1.0000000
B2   B   0.763531841835398   0.521642605439984   0.110742441836868   1.0000000
B2   B   0.755251025042468   0.659226388555698   0.110697089778545   1.0000000
B2   B   0.759451580808884   0.804088060799315   0.110724465331415   1.0000000
C2   C   0.614368473738677   0.659189547480362   0.110846878328929   1.0000000
N2   N   0.953076068376097   0.903246517704009   0.110714632357808   1.0000000
N2   N   0.955268895160595   0.046910928284218   0.110756213380660   1.0000000
N2   N   0.956596446945717   0.190373355830266   0.110735358797381   1.0000000
N2   N   0.956475491267848   0.333241605295550   0.110732516449654   1.0000000
N2   N   0.955073277213536   0.476172315552978   0.110720609911337   1.0000000
N2   N   0.952977929528620   0.618919648377582   0.110737864454286   1.0000000
N2   N   0.952365947460764   0.760967492800960   0.110707538658481   1.0000000
N2   N   0.097107586712182   0.905789676496951   0.110689304300221   1.0000000
N2   N   0.099523100727003   0.049680024375246   0.110721226038245   1.0000000
N2   N   0.101158446428430   0.192883557230219   0.110757843837626   1.0000000
N2   N   0.100255223591313   0.334785759753315   0.110763014952166   1.0000000
N2   N   0.097750199458532   0.477115808744497   0.110741766555924   1.0000000
N2   N   0.096327967866878   0.619985085357478   0.110723518856986   1.0000000
N2   N   0.096230644615063   0.762814365290585   0.110721033035306   1.0000000
N2   N   0.240124978110845   0.906663417436200   0.110704804808756   1.0000000
N2   N   0.241955853681590   0.050468920409062   0.110696033270510   1.0000000
N2   N   0.246631463028881   0.196620435439468   0.110728609609818   1.0000000
N2   N   0.247132005910098   0.339082557439866   0.110737200580598   1.0000000
N2   N   0.240864366861446   0.478745254044367   0.110696108410228   1.0000000
N2   N   0.238948086871087   0.620925359780542   0.110725788574130   1.0000000
N2   N   0.239267982374338   0.763677238114008   0.110728105301312   1.0000000
N2   N   0.383049707840790   0.906668575332593   0.110728468204483   1.0000000
N2   N   0.384130253125543   0.049711528731325   0.110733334867400   1.0000000
N2   N   0.386577122195264   0.194344921102954   0.110723160293714   1.0000000
N2   N   0.397111148533433   0.346097955156073   0.110725992867995   1.0000000
N2   N   0.386786152350913   0.485938089047917   0.110709433592348   1.0000000
N2   N   0.381096516332967   0.622727802571844   0.110720286808073   1.0000000
N2   N   0.382095588273594   0.764345845340742   0.110742957334270   1.0000000
N2   N   0.526035270512739   0.905551262917116   0.110732471909522   1.0000000
N2   N   0.526939752535407   0.047942380246881   0.110754355173663   1.0000000
N2   N   0.528082479117078   0.190522184896782   0.110751248688526   1.0000000
N2   N   0.530829197113724   0.333447433349774   0.110736945391749   1.0000000
N2   N   0.476713437189837   0.529963981955598   0.111057583846974   1.0000000
N2   N   0.519957574890679   0.620141492299256   0.110599400856972   1.0000000
N2   N   0.524479996994991   0.763324874460999   0.110689510497064   1.0000000
N2   N   0.668199682134343   0.901891447905053   0.110719936393404   1.0000000
N2   N   0.669731534950602   0.046164312718874   0.110738068285204   1.0000000
N2   N   0.670659796392800   0.189132107557382   0.110736229479204   1.0000000
N2   N   0.671984420098671   0.331429198957646   0.110714540331502   1.0000000
N2   N   0.669483776885787   0.473185232964339   0.110723672504436   1.0000000
N2   N   0.655000191999947   0.607186618723456   0.110647974287663   1.0000000
N2   N   0.662749076367669   0.753374683632871   0.110684796805587   1.0000000
N2   N   0.809125445693024   0.900754794763514   0.110742793763016   1.0000000
N2   N   0.812300613816933   0.045948443187810   0.110734248069975   1.0000000
N2   N   0.813383373157654   0.189407484054203   0.110726165100092   1.0000000
N2   N   0.813856676142073   0.332367267059749   0.110697372922621   1.0000000
N2   N   0.812409018877212   0.475094726808086   0.110721265944683   1.0000000
N2   N   0.807792433417182   0.616466964553130   0.110716732524778   1.0000000
N2   N   0.806215883838504   0.756176962745720   0.110708453099481   1.0000000


