data_1
_audit_creation_method   'vasp2cif'
_cell_length_a    17.52789999999977
_cell_length_b    17.52789999999977
_cell_length_c    15.0
_cell_angle_alpha    90.0
_cell_angle_beta    90.0
_cell_angle_gamma    119.99999999999916

_symmetry_space_group_name_H-M    'P 1'
loop_
_atom_site_label
_atom_site_type_symbol
_atom_site_fract_x
_atom_site_fract_y
_atom_site_fract_z
_atom_site_occupancy
B2   B   0.906204011228760   0.954622702449943   0.111017591246566   1.0000000
B2   B   0.905425250286773   0.096685503253255   0.110943329167110   1.0000000
B2   B   0.904827815278520   0.238909568975073   0.111002223954660   1.0000000
B2   B   0.904218311514650   0.381289079240535   0.110882639706200   1.0000000
B2   B   0.903324108442663   0.524103419121958   0.111121953409075   1.0000000
B2   B   0.904920020680678   0.667409153985831   0.110322606980759   1.0000000
B2   B   0.906361082218312   0.811707957087629   0.110787236607488   1.0000000
B2   B   0.048081527910445   0.952955821727474   0.110993552709538   1.0000000
B2   B   0.047966826651387   0.095786014085527   0.110929359877707   1.0000000
B2   B   0.047716345419018   0.238574302368534   0.110893590943067   1.0000000
B2   B   0.047302544277895   0.381307814541953   0.110958656434937   1.0000000
B2   B   0.046585648105666   0.523850177340302   0.111079593622749   1.0000000
B2   B   0.046970744872292   0.666451864159942   0.111014257241609   1.0000000
B2   B   0.047359098201533   0.809426816966006   0.110880218323871   1.0000000
B2   B   0.189554004940201   0.951124464307939   0.111047240031378   1.0000000
B2   B   0.190123265035657   0.094401157452769   0.111008109651136   1.0000000
B2   B   0.189795268579681   0.236921087885810   0.110878779204024   1.0000000
B2   B   0.189985814800184   0.380530976474756   0.110939140685572   1.0000000
B2   B   0.189715516311524   0.523832996557719   0.110999075136226   1.0000000
B2   B   0.189742539435924   0.666296319877800   0.111119270924828   1.0000000
B2   B   0.189591042729959   0.808626387100713   0.110988103880041   1.0000000
B2   B   0.332071876580551   0.950583139781488   0.110990221663330   1.0000000
B2   B   0.331542218806678   0.092328568882252   0.110959303761164   1.0000000
B2   B   0.332687522768707   0.235804488234007   0.110722971725837   1.0000000
B2   B   0.331196769568947   0.376803580423199   0.111345166030067   1.0000000
B2   B   0.332082188634783   0.524051011422046   0.111474143664616   1.0000000
B2   B   0.332836067326216   0.666782418952019   0.111110929655062   1.0000000
B2   B   0.332454976205667   0.808812742573184   0.111024924921731   1.0000000
B2   B   0.475304181836393   0.951505119431180   0.111008576687311   1.0000000
B2   B   0.474647097880112   0.092056549054951   0.110959951064606   1.0000000
B2   B   0.473327962501423   0.231612479858561   0.110053743395757   1.0000000
B2   B   0.477399851414515   0.375221428019061   0.110648664154469   1.0000000
B2   B   0.476377372643571   0.670643657216929   0.111520711696509   1.0000000
B2   B   0.475828305936220   0.810723736440124   0.110958235464331   1.0000000
B2   B   0.619085360268764   0.953776155071621   0.110921565263924   1.0000000
B2   B   0.618402425941611   0.094505300329394   0.111081319207788   1.0000000
B2   B   0.617404295752134   0.234927223923644   0.110938200684759   1.0000000
B2   B   0.614189529184277   0.373330757551537   0.111148806668370   1.0000000
B2   B   0.623429858874539   0.675525643116800   0.111285891718071   1.0000000
B2   B   0.620229167696330   0.813667307985387   0.110903284186919   1.0000000
B2   B   0.763035429331768   0.954964791427927   0.110943845655778   1.0000000
B2   B   0.762122764086223   0.096337163461337   0.111039813924119   1.0000000
B2   B   0.761466255842964   0.238053789707707   0.110961329044587   1.0000000
B2   B   0.760727917815658   0.380127002085006   0.110855124346616   1.0000000
B2   B   0.760726556356768   0.526123437021291   0.110988832918836   1.0000000
B2   B   0.765178930229135   0.670511127691218   0.110189113559516   1.0000000
B2   B   0.764743612682062   0.814105592564857   0.110823027349766   1.0000000
P2   P   0.484894724675859   0.522364184903770   0.112071355181847   1.0000000
N2   N   0.953224463236958   0.906323266732252   0.110997042504673   1.0000000
N2   N   0.953196023444942   0.049251587590433   0.110953533829112   1.0000000
N2   N   0.952743958778601   0.191683702986176   0.110901295422227   1.0000000
N2   N   0.952114615781884   0.334106308202886   0.110957552682877   1.0000000
N2   N   0.950828170179070   0.476395716443612   0.111074400804493   1.0000000
N2   N   0.951183504582498   0.618865692267083   0.110887218883198   1.0000000
N2   N   0.952119967000459   0.762204610812094   0.110626420976327   1.0000000
N2   N   0.094671612331132   0.904331414877798   0.110983501757057   1.0000000
N2   N   0.095359703308871   0.047932642501480   0.110955193320378   1.0000000
N2   N   0.095264525701707   0.190794441294212   0.110865150999487   1.0000000
N2   N   0.095256668706897   0.333820285794673   0.110888400782532   1.0000000
N2   N   0.094607481639937   0.476412196009180   0.110955846916259   1.0000000
N2   N   0.094372467068383   0.618750264116694   0.111128922709629   1.0000000
N2   N   0.094361228537030   0.761278553297065   0.110930429861241   1.0000000
N2   N   0.237053000368701   0.903486420011054   0.110974937032189   1.0000000
N2   N   0.236937768650659   0.046084741940963   0.111083307828398   1.0000000
N2   N   0.237901814201809   0.189777949936163   0.110906955188099   1.0000000
N2   N   0.237354626903940   0.332202465036903   0.110924117438244   1.0000000
N2   N   0.237808971751163   0.476034114058003   0.110998563770260   1.0000000
N2   N   0.237756889268805   0.618808557923217   0.111078362608790   1.0000000
N2   N   0.237299758907656   0.761130030270423   0.111030889012849   1.0000000
N2   N   0.380144281925914   0.903638911985373   0.110963262255764   1.0000000
N2   N   0.379685764753286   0.045453599495780   0.110976501533899   1.0000000
N2   N   0.379071810421864   0.187192430642590   0.110570293616270   1.0000000
N2   N   0.381429129314977   0.331775601048283   0.110825074266578   1.0000000
N2   N   0.377050572708777   0.472423348593314   0.112188265625609   1.0000000
N2   N   0.381403716004450   0.619252056791253   0.111257145382905   1.0000000
N2   N   0.380604580818414   0.761653460013858   0.111044242073964   1.0000000
N2   N   0.523717297095331   0.905191017382562   0.110915534278152   1.0000000
N2   N   0.523205417339051   0.046223828433183   0.111072154059314   1.0000000
N2   N   0.522574812393530   0.186805675833569   0.110722775439701   1.0000000
N2   N   0.521329725871179   0.325506832254398   0.109378420411566   1.0000000
N2   N   0.535989873734841   0.467622018035627   0.111652441331889   1.0000000
N2   N   0.529235738712248   0.628103372245190   0.112387253312477   1.0000000
N2   N   0.524562552475496   0.764419532976421   0.110940130371598   1.0000000
N2   N   0.667651617777970   0.907620279645279   0.110876164076180   1.0000000
N2   N   0.666842476480041   0.048405225413751   0.110982142200217   1.0000000
N2   N   0.666263109357565   0.189630796243575   0.111079679684218   1.0000000
N2   N   0.665529193154743   0.330700626930594   0.110769303353686   1.0000000
N2   N   0.663637909695010   0.468009092707137   0.117722229540002   1.0000000
N2   N   0.673893848402425   0.634372251864553   0.109992865770474   1.0000000
N2   N   0.669898331037704   0.768737810487524   0.110880069068008   1.0000000
N2   N   0.811364431023874   0.908147445431519   0.110971406903747   1.0000000
N2   N   0.810297520068841   0.049557767779921   0.110946745486735   1.0000000
N2   N   0.809602460498541   0.191423138782040   0.111064940819489   1.0000000
N2   N   0.808741556302305   0.333631756206971   0.110687628206185   1.0000000
N2   N   0.806269302351003   0.475843169704267   0.110830013259522   1.0000000
N2   N   0.808907327903243   0.619654597252222   0.109786148377102   1.0000000
N2   N   0.811549680808819   0.765540469102906   0.110615387954191   1.0000000


