data_1
_audit_creation_method   'vasp2cif'
_cell_length_a    14.93631414619966
_cell_length_b    14.936314146199727
_cell_length_c    13.341276283792837
_cell_angle_alpha    90.0
_cell_angle_beta    90.0
_cell_angle_gamma    119.99999999999984

_symmetry_space_group_name_H-M    'P 1'
loop_
_atom_site_label
_atom_site_type_symbol
_atom_site_fract_x
_atom_site_fract_y
_atom_site_fract_z
_atom_site_occupancy
Ge2   Ge   0.493756576838940   0.413544955086135   0.375000000000000   1.0000000
N2   N   0.111073123820060   0.055535331900761   0.124960463122850   1.0000000
N2   N   0.611207995226910   0.555729405651580   0.123309262207587   1.0000000
N2   N   0.444475420714738   0.055569974646041   0.124926647792003   1.0000000
N2   N   0.944431479499802   0.555540290400850   0.124902926292912   1.0000000
N2   N   0.777803681461037   0.055568507397186   0.124858816278578   1.0000000
N2   N   0.111108695842901   0.722221014588115   0.625111025721189   1.0000000
N2   N   0.444475420714738   0.722238779402032   0.625073352207997   1.0000000
N2   N   0.277668332854889   0.222161062241537   0.625570808178013   1.0000000
N2   N   0.777791650612741   0.722273683364350   0.625322035003948   1.0000000
N2   N   0.611148153998998   0.222192156222739   0.625384788067466   1.0000000
N2   N   0.944432510124231   0.222209737237099   0.625095961077567   1.0000000
N2   N   0.277796475278399   0.722227524283048   0.124912322360651   1.0000000
N2   N   0.111041807197981   0.222187570265654   0.124904875367643   1.0000000
N2   N   0.444459250073500   0.222229246070026   0.124470598379808   1.0000000
N2   N   0.611148153998998   0.722289331109588   0.124615211932535   1.0000000
N2   N   0.944431479499802   0.722224522432287   0.124902926292912   1.0000000
N2   N   0.777803790737512   0.222200347016529   0.124871494672180   1.0000000
N2   N   0.111107647266187   0.888893828849452   0.625098134528314   1.0000000
N2   N   0.444478295291029   0.888905814312178   0.625105289962762   1.0000000
N2   N   0.277668332854889   0.388840603946680   0.625570808178013   1.0000000
N2   N   0.611207995226910   0.388811922908660   0.626690737792413   1.0000000
N2   N   0.777803790737512   0.888936777054313   0.625128505327819   1.0000000
N2   N   0.944439062781204   0.388873267758265   0.625057815658769   1.0000000
N2   N   0.111073123820060   0.388871125252628   0.124960463122850   1.0000000
N2   N   0.277796475278399   0.888902284328679   0.124912322360651   1.0000000
N2   N   0.611147097498769   0.888923196609831   0.124891297797418   1.0000000
N2   N   0.444128448677902   0.388730891005615   0.122540464626604   1.0000000
N2   N   0.944439062781204   0.888899128356267   0.124942184341229   1.0000000
N2   N   0.777791650612741   0.388851300581719   0.124677964996053   1.0000000
N2   N   0.277783742583041   0.555549847655148   0.625081543906545   1.0000000
N2   N   0.111073123820060   0.055535331900761   0.625039536877149   1.0000000
N2   N   0.611207995226910   0.555729405651580   0.626690737792413   1.0000000
N2   N   0.444475420714738   0.055569974646041   0.625073352207997   1.0000000
N2   N   0.944431479499802   0.555540290400850   0.625097073707088   1.0000000
N2   N   0.111107647266187   0.555547151750063   0.124901865471686   1.0000000
N2   N   0.777803681461037   0.055568507397186   0.625141183721422   1.0000000
N2   N   0.277783742583041   0.055567228261229   0.124918456093456   1.0000000
N2   N   0.444459250073500   0.555563337336811   0.124470598379808   1.0000000
N2   N   0.777777167902425   0.555555250617880   0.124588464874644   1.0000000
N2   N   0.611147097498769   0.055557234222267   0.124891297797418   1.0000000
N2   N   0.444459250073500   0.555563337336811   0.625529401620193   1.0000000
N2   N   0.944432510124231   0.055556106220467   0.124904038922434   1.0000000
N2   N   0.277796475278399   0.722227524283048   0.625087677639349   1.0000000
N2   N   0.111041807197981   0.222187570265654   0.625095124632356   1.0000000
N2   N   0.444459250073500   0.222229246070026   0.625529401620193   1.0000000
N2   N   0.611148153998998   0.722289331109588   0.625384788067466   1.0000000
N2   N   0.944431479499802   0.722224522432287   0.625097073707088   1.0000000
N2   N   0.777803790737512   0.222200347016529   0.625128505327819   1.0000000
N2   N   0.111108695842901   0.722221014588115   0.124888974278811   1.0000000
N2   N   0.444475420714738   0.722238779402032   0.124926647792003   1.0000000
N2   N   0.277668332854889   0.222161062241537   0.124429191821987   1.0000000
N2   N   0.777791650612741   0.722273683364350   0.124677964996053   1.0000000
N2   N   0.611148153998998   0.222192156222739   0.124615211932535   1.0000000
N2   N   0.944432510124231   0.222209737237099   0.124904038922434   1.0000000
N2   N   0.111073123820060   0.388871125252628   0.625039536877149   1.0000000
N2   N   0.277796475278399   0.888902284328679   0.625087677639349   1.0000000
N2   N   0.611147097498769   0.888923196609831   0.625108702202581   1.0000000
N2   N   0.444128448677902   0.388730891005615   0.627459535373396   1.0000000
N2   N   0.944439062781204   0.888899128356267   0.625057815658769   1.0000000
N2   N   0.111107647266187   0.888893828849452   0.124901865471686   1.0000000
N2   N   0.777791650612741   0.388851300581719   0.625322035003948   1.0000000
N2   N   0.444478295291029   0.888905814312178   0.124894710037237   1.0000000
N2   N   0.277668332854889   0.388840603946680   0.124429191821987   1.0000000
N2   N   0.277783742583041   0.555549847655148   0.124918456093456   1.0000000
N2   N   0.611207995226910   0.388811922908660   0.123309262207587   1.0000000
N2   N   0.777803790737512   0.888936777054313   0.124871494672180   1.0000000
N2   N   0.944439062781204   0.388873267758265   0.124942184341229   1.0000000
N2   N   0.111107647266187   0.555547151750063   0.625098134528314   1.0000000
N2   N   0.277783742583041   0.055567228261229   0.625081543906545   1.0000000
N2   N   0.777777167902425   0.555555250617880   0.625411535125355   1.0000000
N2   N   0.611147097498769   0.055557234222267   0.625108702202581   1.0000000
N2   N   0.944432510124231   0.055556106220467   0.625095961077567   1.0000000
N2   N   0.057266682711831   0.112143930413893   0.375000000000000   1.0000000
N2   N   0.554113599076607   0.617799639667746   0.375000000000000   1.0000000
N2   N   0.386789576878059   0.105070529138382   0.375000000000000   1.0000000
N2   N   0.885444599124531   0.609388966228936   0.375000000000000   1.0000000
N2   N   0.722772332979405   0.110725320008781   0.375000000000000   1.0000000
N2   N   0.055575503847411   0.777785860197060   0.875000000000000   1.0000000
N2   N   0.388893087164506   0.777785700266662   0.875000000000000   1.0000000
N2   N   0.222237742400455   0.277785537866895   0.875000000000000   1.0000000
N2   N   0.722231461492678   0.777776868020617   0.875000000000000   1.0000000
N2   N   0.555555634488882   0.277772462433420   0.875000000000000   1.0000000
N2   N   0.888901808175828   0.277789509553198   0.875000000000000   1.0000000
N2   N   0.219562795188971   0.776448064261155   0.375000000000000   1.0000000
N2   N   0.057266682711831   0.278456085631274   0.375000000000000   1.0000000
N2   N   0.391162029130351   0.271761341648732   0.375000000000000   1.0000000
N2   N   0.554778416313139   0.780642721400022   0.375000000000000   1.0000000
N2   N   0.887072213720242   0.777049431018241   0.375000000000000   1.0000000
N2   N   0.722190559709147   0.276136982273183   0.375000000000000   1.0000000
N2   N   0.055567667741226   0.944445256953162   0.875000000000000   1.0000000
N2   N   0.388893087164506   0.944440720231180   0.875000000000000   1.0000000
N2   N   0.222230497411771   0.444457708100880   0.875000000000000   1.0000000
N2   N   0.555568355105230   0.444450844219279   0.875000000000000   1.0000000
N2   N   0.722227946937244   0.944445167456948   0.875000000000000   1.0000000
N2   N   0.888910100930924   0.444459238161102   0.875000000000000   1.0000000
N2   N   0.054836284434785   0.444223287329936   0.375000000000000   1.0000000
N2   N   0.219870267458664   0.942042379844538   0.375000000000000   1.0000000
N2   N   0.554923005028202   0.944128169180764   0.375000000000000   1.0000000
N2   N   0.391162029130351   0.452734020814955   0.375000000000000   1.0000000
N2   N   0.889557441689316   0.945304325395710   0.375000000000000   1.0000000
N2   N   0.718758386185149   0.442166187787437   0.375000000000000   1.0000000
N2   N   0.222227059304829   0.611121736927667   0.875000000000000   1.0000000
N2   N   0.055568194203064   0.111114112418096   0.875000000000000   1.0000000
N2   N   0.555555634488882   0.611116505388799   0.875000000000000   1.0000000
N2   N   0.388889577479605   0.111096990145005   0.875000000000000   1.0000000
N2   N   0.888923988111114   0.611128660722228   0.875000000000000   1.0000000
N2   N   0.052829615993233   0.609998149288561   0.375000000000000   1.0000000
N2   N   0.722227946937244   0.111116112813632   0.875000000000000   1.0000000
N2   N   0.222747715951480   0.110446530442411   0.375000000000000   1.0000000
N2   N   0.386789576878059   0.615052381073020   0.375000000000000   1.0000000
N2   N   0.718758386185149   0.609925531731048   0.375000000000000   1.0000000
N2   N   0.554778416313139   0.107469028246452   0.375000000000000   1.0000000
N2   N   0.388889577479605   0.611125920667944   0.875000000000000   1.0000000
N2   N   0.890192916702365   0.111763125017854   0.375000000000000   1.0000000
N2   N   0.222232115967035   0.777782724650186   0.875000000000000   1.0000000
N2   N   0.055568194203064   0.277787415118304   0.875000000000000   1.0000000
N2   N   0.388897400097383   0.277765393188772   0.875000000000000   1.0000000
N2   N   0.555557774725580   0.777781374328951   0.875000000000000   1.0000000
N2   N   0.888910100930924   0.777784196103157   0.875000000000000   1.0000000
N2   N   0.722231461492678   0.277787926805398   0.875000000000000   1.0000000
N2   N   0.052829615993233   0.776164800038009   0.375000000000000   1.0000000
N2   N   0.386919946207535   0.778359065112662   0.375000000000000   1.0000000
N2   N   0.225812819162199   0.279573076247767   0.375000000000000   1.0000000
N2   N   0.722190559709147   0.779386910769300   0.375000000000000   1.0000000
N2   N   0.554113599076607   0.269647292742197   0.375000000000000   1.0000000
N2   N   0.889557441689316   0.277586449626940   0.375000000000000   1.0000000
N2   N   0.055567667741226   0.444455744121391   0.875000000000000   1.0000000
N2   N   0.222227059304829   0.944438655710499   0.875000000000000   1.0000000
N2   N   0.555558348065739   0.944445840699534   0.875000000000000   1.0000000
N2   N   0.388897400097383   0.444465340241947   0.875000000000000   1.0000000
N2   N   0.888901808175828   0.944445631955966   0.875000000000000   1.0000000
N2   N   0.054836284434785   0.943946330438179   0.375000000000000   1.0000000
N2   N   0.722249269718188   0.444463477081778   0.875000000000000   1.0000000
N2   N   0.386919946207535   0.941894214428209   0.375000000000000   1.0000000
N2   N   0.222747715951480   0.445634518842404   0.375000000000000   1.0000000
N2   N   0.219870267458664   0.611161220947462   0.375000000000000   1.0000000
N2   N   0.722772332979405   0.945380346303959   0.375000000000000   1.0000000
N2   N   0.887072213720242   0.443356116035338   0.375000000000000   1.0000000
N2   N   0.055575503847411   0.611122976983687   0.875000000000000   1.0000000
N2   N   0.222230497411771   0.111106122644227   0.875000000000000   1.0000000
N2   N   0.722249269718188   0.611119125969743   0.875000000000000   1.0000000
N2   N   0.555557774725580   0.111109733729964   0.875000000000000   1.0000000
N2   N   0.888900000623956   0.111116666978649   0.875000000000000   1.0000000
B2   B   0.111976272889145   0.055663039095452   0.375000000000000   1.0000000
B2   B   0.607303658793926   0.560445179420657   0.375000000000000   1.0000000
B2   B   0.443412451818690   0.052069027661329   0.375000000000000   1.0000000
B2   B   0.941532917752480   0.554382433502127   0.375000000000000   1.0000000
B2   B   0.778926838363489   0.056130085848412   0.375000000000000   1.0000000
B2   B   0.111117972678296   0.722225653005813   0.875000000000000   1.0000000
B2   B   0.444447561060144   0.722187725595491   0.875000000000000   1.0000000
B2   B   0.277871001413302   0.222281233906522   0.875000000000000   1.0000000
B2   B   0.777740832365404   0.722147930392183   0.875000000000000   1.0000000
B2   B   0.611082707138308   0.222278237993659   0.875000000000000   1.0000000
B2   B   0.944472985902658   0.222246873175718   0.875000000000000   1.0000000
B2   B   0.275729429654798   0.721893366787427   0.375000000000000   1.0000000
B2   B   0.114614869490310   0.223974101411820   0.375000000000000   1.0000000
B2   B   0.442894978569086   0.215155721771788   0.375000000000000   1.0000000
B2   B   0.610907208650200   0.726347313438800   0.375000000000000   1.0000000
B2   B   0.941532917752480   0.720483817583691   0.375000000000000   1.0000000
B2   B   0.778392280993095   0.221791886218233   0.375000000000000   1.0000000
B2   B   0.111128481687430   0.888897302807374   0.875000000000000   1.0000000
B2   B   0.444443297135416   0.888888315234373   0.875000000000000   1.0000000
B2   B   0.277871001413302   0.388923100840108   0.875000000000000   1.0000000
B2   B   0.611069578888528   0.388933135058933   0.875000000000000   1.0000000
B2   B   0.777764358139665   0.888841325956164   0.875000000000000   1.0000000
B2   B   0.944450669281164   0.388915081169564   0.875000000000000   1.0000000
B2   B   0.111976272889145   0.389646567127022   0.375000000000000   1.0000000
B2   B   0.275729429654798   0.887169396200700   0.375000000000000   1.0000000
B2   B   0.611367286254723   0.890364128091726   0.375000000000000   1.0000000
B2   B   0.943718047831508   0.888468997726043   0.375000000000000   1.0000000
B2   B   0.775570541355246   0.387527369030812   0.375000000000000   1.0000000
B2   B   0.277817327606036   0.555553424903287   0.875000000000000   1.0000000
B2   B   0.111163607658368   0.055583273578106   0.875000000000000   1.0000000
B2   B   0.611069578888528   0.555469777162924   0.875000000000000   1.0000000
B2   B   0.444447561060144   0.055593168797989   0.875000000000000   1.0000000
B2   B   0.944432942654511   0.555563767336576   0.875000000000000   1.0000000
B2   B   0.109075372315500   0.555152543961630   0.375000000000000   1.0000000
B2   B   0.777776629219271   0.055554981276304   0.875000000000000   1.0000000
B2   B   0.276354386832776   0.053065405085855   0.375000000000000   1.0000000
B2   B   0.442894978569086   0.561072590130634   0.375000000000000   1.0000000
B2   B   0.773281552747368   0.553307443040352   0.375000000000000   1.0000000
B2   B   0.611367286254723   0.054336491496325   0.375000000000000   1.0000000
B2   B   0.444471031340405   0.555518915575865   0.875000000000000   1.0000000
B2   B   0.946117850059949   0.056578601527139   0.375000000000000   1.0000000
B2   B   0.277792487623026   0.722219215084629   0.875000000000000   1.0000000
B2   B   0.111189102294036   0.222261217813682   0.875000000000000   1.0000000
B2   B   0.444471031340405   0.222285449097877   0.875000000000000   1.0000000
B2   B   0.611082707138308   0.722137802477979   0.875000000000000   1.0000000
B2   B   0.944432942654511   0.722202508651272   0.875000000000000   1.0000000
B2   B   0.777764358139665   0.222256365516828   0.875000000000000   1.0000000
B2   B   0.108455745687237   0.720894539510284   0.375000000000000   1.0000000
B2   B   0.443412451818690   0.724676757490696   0.375000000000000   1.0000000
B2   B   0.281941899705544   0.223280330051589   0.375000000000000   1.0000000
B2   B   0.775570541355246   0.721376505657764   0.375000000000000   1.0000000
B2   B   0.610907208650200   0.217893228544729   0.375000000000000   1.0000000
B2   B   0.946117850059949   0.222872581866145   0.375000000000000   1.0000000
B2   B   0.111163607658368   0.388913667413591   0.875000000000000   1.0000000
B2   B   0.277792487623027   0.888906605871727   0.875000000000000   1.0000000
B2   B   0.611097238493714   0.888856954904255   0.875000000000000   1.0000000
B2   B   0.444522182456234   0.388927757894782   0.875000000000000   1.0000000
B2   B   0.944450669281164   0.888868921444927   0.875000000000000   1.0000000
B2   B   0.109075372315500   0.887256161687198   0.375000000000000   1.0000000
B2   B   0.777740832365404   0.388926235306550   0.875000000000000   1.0000000
B2   B   0.443466555139447   0.888399944236387   0.375000000000000   1.0000000
B2   B   0.281941899705544   0.391994902987283   0.375000000000000   1.0000000
B2   B   0.276354386832776   0.556622315080257   0.375000000000000   1.0000000
B2   B   0.607303658793926   0.380191812706595   0.375000000000000   1.0000000
B2   B   0.778392280993095   0.889933728108189   0.375000000000000   1.0000000
B2   B   0.943718047831508   0.388582383438794   0.375000000000000   1.0000000
B2   B   0.111128481687430   0.555564512213384   0.875000000000000   1.0000000
B2   B   0.277817327606036   0.055597236036085   0.875000000000000   1.0000000
B2   B   0.777735123604568   0.555534228468954   0.875000000000000   1.0000000
B2   B   0.611097238493714   0.055573616922791   0.875000000000000   1.0000000
B2   B   0.944472985902658   0.055559446060275   0.875000000000000   1.0000000
B2   B   0.055593666428607   0.111153621879670   0.125119193950682   1.0000000
B2   B   0.555613611580823   0.610929972887110   0.124659339122745   1.0000000
B2   B   0.389007540539883   0.111358418162518   0.125132311328933   1.0000000
B2   B   0.888660713955163   0.610997023644254   0.125054485359056   1.0000000
B2   B   0.722237999889718   0.111133297152191   0.125018622108669   1.0000000
B2   B   0.055492144995433   0.777765287223606   0.624960860342863   1.0000000
B2   B   0.388959439886577   0.777751259210412   0.624926133301495   1.0000000
B2   B   0.222306318494561   0.277819825913948   0.625031962289152   1.0000000
B2   B   0.722164581257537   0.777702885261879   0.625052340056729   1.0000000
B2   B   0.555613611580823   0.278016972027047   0.625340660877255   1.0000000
B2   B   0.888873982224257   0.277766245669329   0.624946054459195   1.0000000
B2   B   0.222246115819657   0.777789724576496   0.125024873120055   1.0000000
B2   B   0.055593666428607   0.277773377882273   0.125119193950682   1.0000000
B2   B   0.388959232459701   0.277983146430712   0.124501675897495   1.0000000
B2   B   0.555601429655995   0.777711360589207   0.125040695030658   1.0000000
B2   B   0.888771336787960   0.777716344403267   0.125035282924596   1.0000000
B2   B   0.722164581257537   0.277795029328995   0.124947659943271   1.0000000
B2   B   0.055554591398029   0.944484024518838   0.624893106755725   1.0000000
B2   B   0.388959439886577   0.944541514009501   0.624926133301495   1.0000000
B2   B   0.222298473275700   0.444379514581486   0.624892109392153   1.0000000
B2   B   0.555414419499553   0.444373876416441   0.622997528516947   1.0000000
B2   B   0.722237999889718   0.944438036070864   0.624981377891330   1.0000000
B2   B   0.888771336787960   0.444388325718027   0.624964717075405   1.0000000
B2   B   0.055554591398029   0.444403900212518   0.125106893244275   1.0000000
B2   B   0.222279063607972   0.944560180053257   0.125089171872711   1.0000000
B2   B   0.555603911475945   0.944468622404637   0.125047088465628   1.0000000
B2   B   0.388959232459701   0.444309419362324   0.124501675897495   1.0000000
B2   B   0.888873982224257   0.944441069888263   0.125053945540805   1.0000000
B2   B   0.721916749634795   0.444318030759867   0.124601148808221   1.0000000
B2   B   0.222279063607972   0.611052216888050   0.624910828127290   1.0000000
B2   B   0.055593666428607   0.111153621879670   0.624880806049318   1.0000000
B2   B   0.555613611580823   0.610929972887110   0.625340660877255   1.0000000
B2   B   0.389007540539883   0.111358418162518   0.624867688671067   1.0000000
B2   B   0.888660713955163   0.610997023644254   0.624945514640943   1.0000000
B2   B   0.055492144995433   0.611060191105164   0.125039139657138   1.0000000
B2   B   0.722237999889718   0.111133297152191   0.624981377891330   1.0000000
B2   B   0.222298473275700   0.111252292027549   0.125107890607848   1.0000000
B2   B   0.389007540539883   0.610982455710708   0.125132311328933   1.0000000
B2   B   0.721916749634795   0.610932052208263   0.124601148808221   1.0000000
B2   B   0.555601429655995   0.111223402400124   0.125040695030658   1.0000000
B2   B   0.389007540539883   0.610982455710708   0.624867688671067   1.0000000
B2   B   0.888906480761527   0.111119907047435   0.125023677759447   1.0000000
B2   B   0.222246115819657   0.777789724576496   0.624975126879944   1.0000000
B2   B   0.055593666428607   0.277773377882273   0.624880806049318   1.0000000
B2   B   0.388959232459701   0.277983146430712   0.625498324102506   1.0000000
B2   B   0.555601429655995   0.777711360589207   0.624959304969342   1.0000000
B2   B   0.888771336787960   0.777716344403267   0.624964717075405   1.0000000
B2   B   0.722164581257537   0.277795029328995   0.625052340056729   1.0000000
B2   B   0.055492144995433   0.777765287223606   0.125039139657138   1.0000000
B2   B   0.388959439886577   0.777751259210412   0.125073866698506   1.0000000
B2   B   0.222306318494561   0.277819825913948   0.124968037710847   1.0000000
B2   B   0.722164581257537   0.777702885261879   0.124947659943271   1.0000000
B2   B   0.555613611580823   0.278016972027047   0.124659339122745   1.0000000
B2   B   0.888873982224257   0.277766245669329   0.125053945540805   1.0000000
B2   B   0.055554591398029   0.444403900212518   0.624893106755725   1.0000000
B2   B   0.222279063607972   0.944560180053257   0.624910828127290   1.0000000
B2   B   0.555603911475945   0.944468622404637   0.624952911534372   1.0000000
B2   B   0.388959232459701   0.444309419362324   0.625498324102506   1.0000000
B2   B   0.888873982224257   0.944441069888263   0.624946054459195   1.0000000
B2   B   0.055554591398029   0.944484024518838   0.125106893244275   1.0000000
B2   B   0.721916749634795   0.444318030759867   0.625398851191779   1.0000000
B2   B   0.388959439886577   0.944541514009501   0.125073866698506   1.0000000
B2   B   0.222298473275700   0.444379514581486   0.125107890607848   1.0000000
B2   B   0.222279063607972   0.611052216888050   0.125089171872711   1.0000000
B2   B   0.555414419499553   0.444373876416441   0.127002471483054   1.0000000
B2   B   0.722237999889718   0.944438036070864   0.125018622108669   1.0000000
B2   B   0.888771336787960   0.444388325718027   0.125035282924596   1.0000000
B2   B   0.055492144995433   0.611060191105164   0.624960860342863   1.0000000
B2   B   0.222298473275700   0.111252292027549   0.624892109392153   1.0000000
B2   B   0.721916749634795   0.610932052208263   0.625398851191779   1.0000000
B2   B   0.555601429655995   0.111223402400124   0.624959304969342   1.0000000
B2   B   0.888906480761527   0.111119907047435   0.624976322240552   1.0000000


