data_1
_audit_creation_method   'vasp2cif'
_cell_length_a    14.93631414619966
_cell_length_b    14.936314146199727
_cell_length_c    13.341276283792837
_cell_angle_alpha    90.0
_cell_angle_beta    90.0
_cell_angle_gamma    119.99999999999984

_symmetry_space_group_name_H-M    'P 1'
loop_
_atom_site_label
_atom_site_type_symbol
_atom_site_fract_x
_atom_site_fract_y
_atom_site_fract_z
_atom_site_occupancy
O2   O   0.444444444444443   0.388888888888886   0.375000000000000   1.0000000
N2   N   0.111105816299506   0.055556387888242   0.125020018757266   1.0000000
N2   N   0.611103331701575   0.555565205425701   0.125109050192730   1.0000000
N2   N   0.444450571588736   0.055556387888242   0.125020018757266   1.0000000
N2   N   0.944443615281855   0.555553713887457   0.125018193335625   1.0000000
N2   N   0.777777777777779   0.055555555555557   0.125005803871700   1.0000000
N2   N   0.111111111111114   0.722222222222221   0.624988111127323   1.0000000
N2   N   0.444450571588736   0.722227517033829   0.624979981242734   1.0000000
N2   N   0.277768127907642   0.222230001631761   0.624890949807271   1.0000000
N2   N   0.777776945445094   0.722227517033829   0.624979981242734   1.0000000
N2   N   0.611120467173041   0.222212866160294   0.624979475735020   1.0000000
N2   N   0.944435930518140   0.222219005758800   0.624986966707245   1.0000000
N2   N   0.277779619445878   0.722223234727734   0.125018193335625   1.0000000
N2   N   0.111092398987260   0.222212866160294   0.125020524264980   1.0000000
N2   N   0.444461873724118   0.222230001631761   0.125109050192730   1.0000000
N2   N   0.611120467173041   0.722240934346076   0.125020524264980   1.0000000
N2   N   0.944443615281855   0.722223234727734   0.125018193335625   1.0000000
N2   N   0.777783075240652   0.222219005758800   0.125013033292756   1.0000000
N2   N   0.111110098605602   0.888889718051473   0.624981806664375   1.0000000
N2   N   0.444446597286737   0.888889965310029   0.624982231703805   1.0000000
N2   N   0.277768127907642   0.388871459609210   0.624890949807271   1.0000000
N2   N   0.611103331701575   0.388871459609210   0.624890949807271   1.0000000
N2   N   0.777783075240652   0.888897402815188   0.624986966707245   1.0000000
N2   N   0.944443368023300   0.388886736046592   0.624982231703805   1.0000000
N2   N   0.111105816299506   0.388882761744593   0.125020018757266   1.0000000
N2   N   0.277779619445878   0.888889718051473   0.125018193335625   1.0000000
N2   N   0.611114327574536   0.888897402815188   0.125013033292756   1.0000000
N2   N   0.444444444444443   0.388888888888886   0.124799263595705   1.0000000
N2   N   0.944443368023300   0.888889965310029   0.125017768296195   1.0000000
N2   N   0.777776945445094   0.388882761744593   0.125020018757266   1.0000000
N2   N   0.277781665743135   0.555551667590201   0.624977633395007   1.0000000
N2   N   0.111105816299506   0.055556387888242   0.624979981242734   1.0000000
N2   N   0.611103331701575   0.555565205425701   0.624890949807271   1.0000000
N2   N   0.444450571588736   0.055556387888242   0.624979981242734   1.0000000
N2   N   0.944443615281855   0.555553713887457   0.624981806664375   1.0000000
N2   N   0.111110098605602   0.555553713887457   0.125018193335625   1.0000000
N2   N   0.777777777777779   0.055555555555557   0.624994196128300   1.0000000
N2   N   0.277781665743135   0.055563331486270   0.125022366604993   1.0000000
N2   N   0.444461873724118   0.555565205425701   0.125109050192730   1.0000000
N2   N   0.777770001847066   0.555551667590201   0.125022366604993   1.0000000
N2   N   0.611114327574536   0.055550258092684   0.125013033292756   1.0000000
N2   N   0.444461873724118   0.555565205425701   0.624890949807271   1.0000000
N2   N   0.944435930518140   0.055550258092684   0.125013033292756   1.0000000
N2   N   0.277779619445878   0.722223234727734   0.624981806664375   1.0000000
N2   N   0.111092398987260   0.222212866160294   0.624979475735020   1.0000000
N2   N   0.444461873724118   0.222230001631761   0.624890949807271   1.0000000
N2   N   0.611120467173041   0.722240934346076   0.624979475735020   1.0000000
N2   N   0.944443615281855   0.722223234727734   0.624981806664375   1.0000000
N2   N   0.777783075240652   0.222219005758800   0.624986966707245   1.0000000
N2   N   0.111111111111114   0.722222222222221   0.125011888872677   1.0000000
N2   N   0.444450571588736   0.722227517033829   0.125020018757266   1.0000000
N2   N   0.277768127907642   0.222230001631761   0.125109050192730   1.0000000
N2   N   0.777776945445094   0.722227517033829   0.125020018757266   1.0000000
N2   N   0.611120467173041   0.222212866160294   0.125020524264980   1.0000000
N2   N   0.944435930518140   0.222219005758800   0.125013033292756   1.0000000
N2   N   0.111105816299506   0.388882761744593   0.624979981242734   1.0000000
N2   N   0.277779619445878   0.888889718051473   0.624981806664375   1.0000000
N2   N   0.611114327574536   0.888897402815188   0.624986966707245   1.0000000
N2   N   0.444444444444443   0.388888888888886   0.625200736404295   1.0000000
N2   N   0.944443368023300   0.888889965310029   0.624982231703805   1.0000000
N2   N   0.111110098605602   0.888889718051473   0.125018193335625   1.0000000
N2   N   0.777776945445094   0.388882761744593   0.624979981242734   1.0000000
N2   N   0.444446597286737   0.888889965310029   0.125017768296195   1.0000000
N2   N   0.277768127907642   0.388871459609210   0.125109050192730   1.0000000
N2   N   0.277781665743135   0.555551667590201   0.125022366604993   1.0000000
N2   N   0.611103331701575   0.388871459609210   0.125109050192730   1.0000000
N2   N   0.777783075240652   0.888897402815188   0.125013033292756   1.0000000
N2   N   0.944443368023300   0.388886736046592   0.125017768296195   1.0000000
N2   N   0.111110098605602   0.555553713887457   0.624981806664375   1.0000000
N2   N   0.277781665743135   0.055563331486270   0.624977633395007   1.0000000
N2   N   0.777770001847066   0.555551667590201   0.624977633395007   1.0000000
N2   N   0.611114327574536   0.055550258092684   0.624986966707245   1.0000000
N2   N   0.944435930518140   0.055550258092684   0.624986966707245   1.0000000
N2   N   0.055081948856664   0.110789361630168   0.375000000000000   1.0000000
N2   N   0.556004828108518   0.612009656217044   0.375000000000000   1.0000000
N2   N   0.388409724475342   0.108975830295077   0.375000000000000   1.0000000
N2   N   0.889634759698465   0.611484046515904   0.375000000000000   1.0000000
N2   N   0.722299628403998   0.111033704929339   0.375000000000000   1.0000000
N2   N   0.055555875942752   0.777777457390590   0.875000000000000   1.0000000
N2   N   0.388887582339324   0.777779069841732   0.875000000000000   1.0000000
N2   N   0.222221074459059   0.277777203896197   0.875000000000000   1.0000000
N2   N   0.722224490629679   0.777778771540399   0.875000000000000   1.0000000
N2   N   0.555556129437139   0.277777203896197   0.875000000000000   1.0000000
N2   N   0.888890345994371   0.277780691988749   0.875000000000000   1.0000000
N2   N   0.222076168531837   0.777704750932583   0.375000000000000   1.0000000
N2   N   0.055081948856664   0.277625920559832   0.375000000000000   1.0000000
N2   N   0.382528016554193   0.265056033108400   0.375000000000000   1.0000000
N2   N   0.555707412773504   0.778251384476672   0.375000000000000   1.0000000
N2   N   0.889445364234516   0.778217522524311   0.375000000000000   1.0000000
N2   N   0.722543971703168   0.277625920559832   0.375000000000000   1.0000000
N2   N   0.055554263491604   0.944441845830921   0.875000000000000   1.0000000
N2   N   0.388887582339324   0.944441845830921   0.875000000000000   1.0000000
N2   N   0.222221000145805   0.444445344780215   0.875000000000000   1.0000000
N2   N   0.555556997721424   0.444445165527376   0.875000000000000   1.0000000
N2   N   0.722221855281250   0.944443710562501   0.875000000000000   1.0000000
N2   N   0.888891487502408   0.444445750994005   0.875000000000000   1.0000000
N2   N   0.055115810809025   0.444561175043541   0.375000000000000   1.0000000
N2   N   0.221849286817432   0.943698573634863   0.375000000000000   1.0000000
N2   N   0.555634485722365   0.944483909527843   0.375000000000000   1.0000000
N2   N   0.382528016554193   0.450805316779136   0.375000000000000   1.0000000
N2   N   0.888849423805485   0.944483909527843   0.375000000000000   1.0000000
N2   N   0.724357503038259   0.444923608857986   0.375000000000000   1.0000000
N2   N   0.222220548052682   0.611112785280654   0.875000000000000   1.0000000
N2   N   0.055554561792937   0.111108842703657   0.875000000000000   1.0000000
N2   N   0.555556129437139   0.611112258874276   0.875000000000000   1.0000000
N2   N   0.388887988553113   0.111108988698925   0.875000000000000   1.0000000
N2   N   0.888892237227965   0.611112785280654   0.875000000000000   1.0000000
N2   N   0.055628582400753   0.611257164801498   0.375000000000000   1.0000000
N2   N   0.722221855281250   0.111111478052086   0.875000000000000   1.0000000
N2   N   0.220566105819728   0.108975830295077   0.375000000000000   1.0000000
N2   N   0.388409724475342   0.612767227513608   0.375000000000000   1.0000000
N2   N   0.724357503038259   0.612767227513608   0.375000000000000   1.0000000
N2   N   0.555707412773504   0.110789361630168   0.375000000000000   1.0000000
N2   N   0.388887988553113   0.611112333187531   0.875000000000000   1.0000000
N2   N   0.888734076525334   0.111033704929339   0.375000000000000   1.0000000
N2   N   0.222221581447838   0.777777457390590   0.875000000000000   1.0000000
N2   N   0.055554561792937   0.277779052422615   0.875000000000000   1.0000000
N2   N   0.388888167805952   0.277776335611912   0.875000000000000   1.0000000
N2   N   0.555554280910720   0.777778771540399   0.875000000000000   1.0000000
N2   N   0.888891487502408   0.777779069841732   0.875000000000000   1.0000000
N2   N   0.722224490629679   0.277779052422615   0.875000000000000   1.0000000
N2   N   0.055628582400753   0.777704750932583   0.375000000000000   1.0000000
N2   N   0.388772158289787   0.778217522524311   0.375000000000000   1.0000000
N2   N   0.221323677116292   0.277328505224817   0.375000000000000   1.0000000
N2   N   0.722543971703168   0.778251384476672   0.375000000000000   1.0000000
N2   N   0.556004828108518   0.277328505224817   0.375000000000000   1.0000000
N2   N   0.888849423805485   0.277698847610970   0.375000000000000   1.0000000
N2   N   0.055554263491604   0.444445750994005   0.875000000000000   1.0000000
N2   N   0.222220548052682   0.944441096105364   0.875000000000000   1.0000000
N2   N   0.555552641344587   0.944442987338958   0.875000000000000   1.0000000
N2   N   0.388888167805952   0.444445165527376   0.875000000000000   1.0000000
N2   N   0.888890345994371   0.944442987338958   0.875000000000000   1.0000000
N2   N   0.055115810809025   0.943887969098812   0.375000000000000   1.0000000
N2   N   0.722224344634410   0.444445344780215   0.875000000000000   1.0000000
N2   N   0.388772158289787   0.943887969098812   0.375000000000000   1.0000000
N2   N   0.220566105819728   0.444923608857986   0.375000000000000   1.0000000
N2   N   0.221849286817432   0.611484046515904   0.375000000000000   1.0000000
N2   N   0.568277300224936   0.450805316779136   0.375000000000000   1.0000000
N2   N   0.722299628403998   0.944599256807994   0.375000000000000   1.0000000
N2   N   0.889445364234516   0.444561175043541   0.375000000000000   1.0000000
N2   N   0.055555875942752   0.611111751885498   0.875000000000000   1.0000000
N2   N   0.222221000145805   0.111108988698925   0.875000000000000   1.0000000
N2   N   0.722224344634410   0.611112333187531   0.875000000000000   1.0000000
N2   N   0.555554280910720   0.111108842703657   0.875000000000000   1.0000000
N2   N   0.888889622770828   0.111111478052086   0.875000000000000   1.0000000
B2   B   0.109943409198605   0.054504870357273   0.375000000000000   1.0000000
B2   B   0.613529894454786   0.558768513107816   0.375000000000000   1.0000000
B2   B   0.444561461158660   0.054504870357273   0.375000000000000   1.0000000
B2   B   0.944775931879564   0.555670617467521   0.375000000000000   1.0000000
B2   B   0.777777777777779   0.055555555555557   0.375000000000000   1.0000000
B2   B   0.111111111111114   0.722222222222221   0.875000000000000   1.0000000
B2   B   0.444442379692569   0.722213709866687   0.875000000000000   1.0000000
B2   B   0.277794007272837   0.222235048538191   0.875000000000000   1.0000000
B2   B   0.777771330174118   0.722213709866687   0.875000000000000   1.0000000
B2   B   0.611104662073660   0.222228671259675   0.875000000000000   1.0000000
B2   B   0.944449385629348   0.222225593986071   0.875000000000000   1.0000000
B2   B   0.277662715865814   0.722438647745378   0.375000000000000   1.0000000
B2   B   0.110292003114395   0.221812668223862   0.375000000000000   1.0000000
B2   B   0.445238618653030   0.219803438878550   0.375000000000000   1.0000000
B2   B   0.611520665109474   0.723041330218940   0.375000000000000   1.0000000
B2   B   0.944775931879564   0.722438647745378   0.375000000000000   1.0000000
B2   B   0.777883914357824   0.222034216298589   0.375000000000000   1.0000000
B2   B   0.111113102828623   0.888892206060808   0.875000000000000   1.0000000
B2   B   0.444443289255266   0.888888311294297   0.875000000000000   1.0000000
B2   B   0.277794007272837   0.388892292067974   0.875000000000000   1.0000000
B2   B   0.611098284795144   0.388892292067974   0.875000000000000   1.0000000
B2   B   0.777776208356730   0.888883947703980   0.875000000000000   1.0000000
B2   B   0.944445022039031   0.388890044078063   0.875000000000000   1.0000000
B2   B   0.109943409198605   0.388771872174668   0.375000000000000   1.0000000
B2   B   0.277662715865814   0.888557401453765   0.375000000000000   1.0000000
B2   B   0.611299117034746   0.889183031392563   0.375000000000000   1.0000000
B2   B   0.944392565225011   0.888940768108317   0.375000000000000   1.0000000
B2   B   0.778828462976063   0.388771872174668   0.375000000000000   1.0000000
B2   B   0.277782447752871   0.555550885580465   0.875000000000000   1.0000000
B2   B   0.111119623466648   0.055562003159218   0.875000000000000   1.0000000
B2   B   0.611098284795144   0.555539326060499   0.875000000000000   1.0000000
B2   B   0.444442379692569   0.055562003159218   0.875000000000000   1.0000000
B2   B   0.944441127272521   0.555554230101144   0.875000000000000   1.0000000
B2   B   0.110894685587958   0.555670617467521   0.375000000000000   1.0000000
B2   B   0.777777777777779   0.055555555555557   0.875000000000000   1.0000000
B2   B   0.277206477283176   0.054412954566345   0.375000000000000   1.0000000
B2   B   0.445238618653030   0.558768513107816   0.375000000000000   1.0000000
B2   B   0.778920378766991   0.556126856050159   0.375000000000000   1.0000000
B2   B   0.611299117034746   0.055449418975511   0.375000000000000   1.0000000
B2   B   0.444441041265355   0.555539326060499   0.875000000000000   1.0000000
B2   B   0.944150301940765   0.055449418975511   0.375000000000000   1.0000000
B2   B   0.277779103232192   0.722220230504712   0.875000000000000   1.0000000
B2   B   0.111124009186015   0.222228671259675   0.875000000000000   1.0000000
B2   B   0.444441041265355   0.222235048538191   0.875000000000000   1.0000000
B2   B   0.611104662073660   0.722209324147321   0.875000000000000   1.0000000
B2   B   0.944441127272521   0.722220230504712   0.875000000000000   1.0000000
B2   B   0.777776208356730   0.222225593986071   0.875000000000000   1.0000000
B2   B   0.111111111111114   0.722222222222221   0.375000000000000   1.0000000
B2   B   0.444561461158660   0.723389924134730   0.375000000000000   1.0000000
B2   B   0.274564820225520   0.219803438878550   0.375000000000000   1.0000000
B2   B   0.778828462976063   0.723389924134730   0.375000000000000   1.0000000
B2   B   0.611520665109474   0.221812668223862   0.375000000000000   1.0000000
B2   B   0.944150301940765   0.222034216298589   0.375000000000000   1.0000000
B2   B   0.111119623466648   0.388890953640759   0.875000000000000   1.0000000
B2   B   0.277779103232192   0.888892206060808   0.875000000000000   1.0000000
B2   B   0.611107739347264   0.888883947703980   0.875000000000000   1.0000000
B2   B   0.444444444444443   0.388888888888886   0.875000000000000   1.0000000
B2   B   0.944445022039031   0.888888311294297   0.875000000000000   1.0000000
B2   B   0.110894685587958   0.888557401453765   0.375000000000000   1.0000000
B2   B   0.777771330174118   0.388890953640759   0.875000000000000   1.0000000
B2   B   0.444548202883298   0.888940768108317   0.375000000000000   1.0000000
B2   B   0.274564820225520   0.388094714680299   0.375000000000000   1.0000000
B2   B   0.277206477283176   0.556126856050159   0.375000000000000   1.0000000
B2   B   0.613529894454786   0.388094714680299   0.375000000000000   1.0000000
B2   B   0.777883914357824   0.889183031392563   0.375000000000000   1.0000000
B2   B   0.944392565225011   0.388785130450030   0.375000000000000   1.0000000
B2   B   0.111113102828623   0.555554230101144   0.875000000000000   1.0000000
B2   B   0.277782447752871   0.055564895505749   0.875000000000000   1.0000000
B2   B   0.777768437827587   0.555550885580465   0.875000000000000   1.0000000
B2   B   0.611107739347264   0.055557124976605   0.875000000000000   1.0000000
B2   B   0.944449385629348   0.055557124976605   0.875000000000000   1.0000000
B2   B   0.055555158159887   0.111115131003343   0.124992095616166   1.0000000
B2   B   0.555540695020464   0.611081390040920   0.125020552877560   1.0000000
B2   B   0.388909331700133   0.111159864719689   0.125021490515165   1.0000000
B2   B   0.888865284193920   0.611099308763635   0.124991800962952   1.0000000
B2   B   0.722222918928166   0.111110414405170   0.124993390792705   1.0000000
B2   B   0.055552609705831   0.777780723627505   0.625005872126446   1.0000000
B2   B   0.388895988702905   0.777774080411341   0.625007636868013   1.0000000
B2   B   0.222251943292415   0.277792638312872   0.624979447122440   1.0000000
B2   B   0.722218202329992   0.777778175173448   0.625007904383834   1.0000000
B2   B   0.555540695020464   0.277792638312872   0.624979447122440   1.0000000
B2   B   0.888886548107131   0.277773096214261   0.625006368784033   1.0000000
B2   B   0.222228113921681   0.777780723627505   0.124994127873555   1.0000000
B2   B   0.055555158159887   0.277773360489880   0.124992095616166   1.0000000
B2   B   0.388946714552155   0.277893429104317   0.125295676820355   1.0000000
B2   B   0.555559972843456   0.777778175173448   0.124992095616166   1.0000000
B2   B   0.888878091708437   0.777774080411341   0.124992363131987   1.0000000
B2   B   0.722218202329992   0.277773360489880   0.124992095616166   1.0000000
B2   B   0.055559252921994   0.944455241624892   0.625007636868013   1.0000000
B2   B   0.388895988702905   0.944455241624892   0.625007636868013   1.0000000
B2   B   0.222250533019549   0.444424001633195   0.624978509484835   1.0000000
B2   B   0.555439904229018   0.444386618781173   0.624704323179645   1.0000000
B2   B   0.722222918928166   0.944445837856325   0.625006609207295   1.0000000
B2   B   0.888878091708437   0.444437344630423   0.625007636868013   1.0000000
B2   B   0.055559252921994   0.444437344630423   0.124992363131987   1.0000000
B2   B   0.222234024569701   0.944468049139408   0.124991800962952   1.0000000
B2   B   0.555560237119074   0.944446785226198   0.124993631215967   1.0000000
B2   B   0.388946714552155   0.444386618781173   0.125295676820355   1.0000000
B2   B   0.888886548107131   0.944446785226198   0.124993631215967   1.0000000
B2   B   0.722173468613646   0.444424001633195   0.125021490515165   1.0000000
B2   B   0.222234024569701   0.611099308763635   0.625008199037048   1.0000000
B2   B   0.055555158159887   0.111115131003343   0.625007904383834   1.0000000
B2   B   0.555540695020464   0.611081390040920   0.624979447122440   1.0000000
B2   B   0.388909331700133   0.111159864719689   0.624978509484835   1.0000000
B2   B   0.888865284193920   0.611099308763635   0.625008199037048   1.0000000
B2   B   0.055552609705831   0.611105219411654   0.124994127873555   1.0000000
B2   B   0.722222918928166   0.111110414405170   0.625006609207295   1.0000000
B2   B   0.222250533019549   0.111159864719689   0.125021490515165   1.0000000
B2   B   0.388909331700133   0.611082800313787   0.125021490515165   1.0000000
B2   B   0.722173468613646   0.611082800313787   0.125021490515165   1.0000000
B2   B   0.555559972843456   0.111115131003343   0.124992095616166   1.0000000
B2   B   0.388909331700133   0.611082800313787   0.624978509484835   1.0000000
B2   B   0.888887495477004   0.111110414405170   0.124993390792705   1.0000000
B2   B   0.222228113921681   0.777780723627505   0.625005872126446   1.0000000
B2   B   0.055555158159887   0.277773360489880   0.625007904383834   1.0000000
B2   B   0.388946714552155   0.277893429104317   0.624704323179645   1.0000000
B2   B   0.555559972843456   0.777778175173448   0.625007904383834   1.0000000
B2   B   0.888878091708437   0.777774080411341   0.625007636868013   1.0000000
B2   B   0.722218202329992   0.277773360489880   0.625007904383834   1.0000000
B2   B   0.055552609705831   0.777780723627505   0.124994127873555   1.0000000
B2   B   0.388895988702905   0.777774080411341   0.124992363131987   1.0000000
B2   B   0.222251943292415   0.277792638312872   0.125020552877560   1.0000000
B2   B   0.722218202329992   0.777778175173448   0.124992095616166   1.0000000
B2   B   0.555540695020464   0.277792638312872   0.125020552877560   1.0000000
B2   B   0.888886548107131   0.277773096214261   0.124993631215967   1.0000000
B2   B   0.055559252921994   0.444437344630423   0.625007636868013   1.0000000
B2   B   0.222234024569701   0.944468049139408   0.625008199037048   1.0000000
B2   B   0.555560237119074   0.944446785226198   0.625006368784033   1.0000000
B2   B   0.388946714552155   0.444386618781173   0.624704323179645   1.0000000
B2   B   0.888886548107131   0.944446785226198   0.625006368784033   1.0000000
B2   B   0.055559252921994   0.944455241624892   0.124992363131987   1.0000000
B2   B   0.722173468613646   0.444424001633195   0.624978509484835   1.0000000
B2   B   0.388895988702905   0.944455241624892   0.124992363131987   1.0000000
B2   B   0.222250533019549   0.444424001633195   0.125021490515165   1.0000000
B2   B   0.222234024569701   0.611099308763635   0.124991800962952   1.0000000
B2   B   0.555439904229018   0.444386618781173   0.125295676820355   1.0000000
B2   B   0.722222918928166   0.944445837856325   0.124993390792705   1.0000000
B2   B   0.888878091708437   0.444437344630423   0.124992363131987   1.0000000
B2   B   0.055552609705831   0.611105219411654   0.625005872126446   1.0000000
B2   B   0.222250533019549   0.111159864719689   0.624978509484835   1.0000000
B2   B   0.722173468613646   0.611082800313787   0.624978509484835   1.0000000
B2   B   0.555559972843456   0.111115131003343   0.625007904383834   1.0000000
B2   B   0.888887495477004   0.111110414405170   0.625006609207295   1.0000000


