data_1
_audit_creation_method   'vasp2cif'
_cell_length_a    14.93631414619966
_cell_length_b    14.936314146199727
_cell_length_c    13.341276283792837
_cell_angle_alpha    90.0
_cell_angle_beta    90.0
_cell_angle_gamma    119.99999999999984

_symmetry_space_group_name_H-M    'P 1'
loop_
_atom_site_label
_atom_site_type_symbol
_atom_site_fract_x
_atom_site_fract_y
_atom_site_fract_z
_atom_site_occupancy
C2   C   0.444644789553568   0.389432153832389   0.375000000000000   1.0000000
N2   N   0.546075126342350   0.442871512281547   0.375000000000000   1.0000000
N2   N   0.111099205163477   0.055539285194338   0.125144552116702   1.0000000
N2   N   0.611114293610209   0.555537855621452   0.125524498858398   1.0000000
N2   N   0.444443587905685   0.055559694056938   0.125124000163904   1.0000000
N2   N   0.944428646183244   0.555550259699095   0.125387823609876   1.0000000
N2   N   0.777769864639394   0.055539583793873   0.125115029483043   1.0000000
N2   N   0.111106419472399   0.722218101659851   0.624839216953317   1.0000000
N2   N   0.444437650979521   0.722217463028626   0.624855443522158   1.0000000
N2   N   0.277775647775704   0.222220304731852   0.624690159835796   1.0000000
N2   N   0.777768231810210   0.722208920279636   0.624763838775992   1.0000000
N2   N   0.611126616184756   0.222228638881371   0.624758371220822   1.0000000
N2   N   0.944438049403176   0.222222678489443   0.624856707708010   1.0000000
N2   N   0.277775060356230   0.722226406570748   0.125121140609149   1.0000000
N2   N   0.111105889518562   0.222216766292151   0.125168403193016   1.0000000
N2   N   0.444422434285745   0.222225603087255   0.125232735855019   1.0000000
N2   N   0.611102013475335   0.722200620648776   0.125200555950452   1.0000000
N2   N   0.944438472386573   0.722212033772011   0.125190436656028   1.0000000
N2   N   0.777769749063804   0.222213647855549   0.125194477003269   1.0000000
N2   N   0.111106790429244   0.888881167526283   0.624885557061958   1.0000000
N2   N   0.444439603453841   0.888890460792275   0.624889835312425   1.0000000
N2   N   0.277789703073346   0.388891005091489   0.624689831128483   1.0000000
N2   N   0.611106197994275   0.388887134633757   0.625272789978059   1.0000000
N2   N   0.777769607887457   0.888875355787647   0.624877384113933   1.0000000
N2   N   0.944439596432209   0.388896843238494   0.624808152771410   1.0000000
N2   N   0.111113366552152   0.388898847321932   0.125154808647183   1.0000000
N2   N   0.277779665423875   0.888890193952264   0.125110560317329   1.0000000
N2   N   0.611097620532528   0.888876199604711   0.125138562138716   1.0000000
N2   N   0.444435590773397   0.388882506658987   0.125306820647805   1.0000000
N2   N   0.944434880399128   0.888870799688301   0.125135400966009   1.0000000
N2   N   0.777764401098748   0.388894866766391   0.125743654353094   1.0000000
N2   N   0.277780414277462   0.555562096807301   0.624830762157856   1.0000000
N2   N   0.111099205163477   0.055539285194338   0.624855447883298   1.0000000
N2   N   0.611114293610209   0.555537855621452   0.624475501141602   1.0000000
N2   N   0.444443587905685   0.055559694056938   0.624875999836096   1.0000000
N2   N   0.944428646183244   0.555550259699095   0.624612176390124   1.0000000
N2   N   0.111105640416295   0.555563119167914   0.125169347536850   1.0000000
N2   N   0.777769864639394   0.055539583793873   0.624884970516957   1.0000000
N2   N   0.277771183899608   0.055551116870703   0.125144083826253   1.0000000
N2   N   0.444446490796355   0.555542029233832   0.125309267587557   1.0000000
N2   N   0.777762735030220   0.555537147400804   0.125769116992315   1.0000000
N2   N   0.611104028314176   0.055551737865369   0.125140114345765   1.0000000
N2   N   0.444446490796355   0.555542029233832   0.624690732412444   1.0000000
N2   N   0.944435378336300   0.055540480171988   0.125130705460582   1.0000000
N2   N   0.277775060356230   0.722226406570748   0.624878859390851   1.0000000
N2   N   0.111105889518562   0.222216766292151   0.624831596806984   1.0000000
N2   N   0.444422434285745   0.222225603087255   0.624767264144982   1.0000000
N2   N   0.611102013475335   0.722200620648776   0.624799444049547   1.0000000
N2   N   0.944438472386573   0.722212033772011   0.624809563343971   1.0000000
N2   N   0.777769749063804   0.222213647855549   0.624805522996731   1.0000000
N2   N   0.111106419472399   0.722218101659851   0.125160783046683   1.0000000
N2   N   0.444437650979521   0.722217463028626   0.125144556477842   1.0000000
N2   N   0.277775647775704   0.222220304731852   0.125309840164204   1.0000000
N2   N   0.777768231810210   0.722208920279636   0.125236161224008   1.0000000
N2   N   0.611126616184756   0.222228638881371   0.125241628779178   1.0000000
N2   N   0.944438049403176   0.222222678489443   0.125143292291990   1.0000000
N2   N   0.111113366552152   0.388898847321932   0.624845191352817   1.0000000
N2   N   0.277779665423875   0.888890193952264   0.624889439682671   1.0000000
N2   N   0.611097620532528   0.888876199604711   0.624861437861285   1.0000000
N2   N   0.444435590773397   0.388882506658987   0.624693179352195   1.0000000
N2   N   0.944434880399128   0.888870799688301   0.624864599033992   1.0000000
N2   N   0.111106790429244   0.888881167526283   0.125114442938042   1.0000000
N2   N   0.777764401098748   0.388894866766391   0.624256345646907   1.0000000
N2   N   0.444439603453841   0.888890460792275   0.125110164687575   1.0000000
N2   N   0.277789703073346   0.388891005091489   0.125310168871517   1.0000000
N2   N   0.277780414277462   0.555562096807301   0.125169237842144   1.0000000
N2   N   0.611106197994275   0.388887134633757   0.124727210021941   1.0000000
N2   N   0.777769607887457   0.888875355787647   0.125122615886067   1.0000000
N2   N   0.944439596432209   0.388896843238494   0.125191847228590   1.0000000
N2   N   0.111105640416295   0.555563119167914   0.624830652463150   1.0000000
N2   N   0.277771183899608   0.055551116870703   0.624855916173748   1.0000000
N2   N   0.777762735030220   0.555537147400804   0.624230883007684   1.0000000
N2   N   0.611104028314176   0.055551737865369   0.624859885654234   1.0000000
N2   N   0.944435378336300   0.055540480171988   0.624869294539418   1.0000000
N2   N   0.055640568526665   0.111166782424079   0.375000000000000   1.0000000
N2   N   0.555200421937908   0.610705642494976   0.375000000000000   1.0000000
N2   N   0.389294937175592   0.113174891772207   0.375000000000000   1.0000000
N2   N   0.888326422411676   0.611200305055935   0.375000000000000   1.0000000
N2   N   0.722374087380132   0.110631791415737   0.375000000000000   1.0000000
N2   N   0.055553814890007   0.777780350278149   0.875000000000000   1.0000000
N2   N   0.388891375753794   0.777780475182000   0.875000000000000   1.0000000
N2   N   0.222220405257821   0.277779933670038   0.875000000000000   1.0000000
N2   N   0.722223532845141   0.777780427763455   0.875000000000000   1.0000000
N2   N   0.555553843917115   0.277778084759470   0.875000000000000   1.0000000
N2   N   0.888892247879390   0.277782487844421   0.875000000000000   1.0000000
N2   N   0.222234894166222   0.777921064389386   0.375000000000000   1.0000000
N2   N   0.055737298680088   0.277748501846601   0.375000000000000   1.0000000
N2   N   0.390868462029573   0.283711061703031   0.375000000000000   1.0000000
N2   N   0.555358259962058   0.777411778317424   0.375000000000000   1.0000000
N2   N   0.888355523575029   0.777508741266752   0.375000000000000   1.0000000
N2   N   0.723270765026304   0.277252996547147   0.375000000000000   1.0000000
N2   N   0.055554652071271   0.944450227641926   0.875000000000000   1.0000000
N2   N   0.388892457273365   0.944448165529839   0.875000000000000   1.0000000
N2   N   0.222220530719093   0.444443740134533   0.875000000000000   1.0000000
N2   N   0.555550016672815   0.444447244646940   0.875000000000000   1.0000000
N2   N   0.722224163243662   0.944448063461486   0.875000000000000   1.0000000
N2   N   0.888892357890916   0.444446716248241   0.875000000000000   1.0000000
N2   N   0.056110357751044   0.444341849277024   0.375000000000000   1.0000000
N2   N   0.222698685455625   0.945386430556193   0.375000000000000   1.0000000
N2   N   0.555437363151138   0.944270728735596   0.375000000000000   1.0000000
N2   N   0.390418263034366   0.441954412793886   0.375000000000000   1.0000000
N2   N   0.888874848206946   0.944348168106080   0.375000000000000   1.0000000
N2   N   0.724007550659313   0.445237953241514   0.375000000000000   1.0000000
N2   N   0.222219350202274   0.611108643478052   0.875000000000000   1.0000000
N2   N   0.055553691820896   0.111112389018562   0.875000000000000   1.0000000
N2   N   0.555554252746922   0.611107910868562   0.875000000000000   1.0000000
N2   N   0.388890260984704   0.111112949471662   0.875000000000000   1.0000000
N2   N   0.888888816392373   0.611110947545666   0.875000000000000   1.0000000
N2   N   0.055188368731808   0.610924926632055   0.375000000000000   1.0000000
N2   N   0.722222433116070   0.111114690757127   0.875000000000000   1.0000000
N2   N   0.223559555475372   0.113087123689405   0.375000000000000   1.0000000
N2   N   0.388985099593711   0.609893382401717   0.375000000000000   1.0000000
N2   N   0.720294431258170   0.609882528053511   0.375000000000000   1.0000000
N2   N   0.555698330796622   0.111043158633607   0.375000000000000   1.0000000
N2   N   0.388890543720461   0.611109197857369   0.875000000000000   1.0000000
N2   N   0.889020649281253   0.110941743800270   0.375000000000000   1.0000000
N2   N   0.222220162424366   0.777778037593385   0.875000000000000   1.0000000
N2   N   0.055554891719783   0.277778692884127   0.875000000000000   1.0000000
N2   N   0.388887818845429   0.277781888319603   0.875000000000000   1.0000000
N2   N   0.555558132857860   0.777778479309479   0.875000000000000   1.0000000
N2   N   0.888889526910038   0.777783098624400   0.875000000000000   1.0000000
N2   N   0.722225783040347   0.277782773679638   0.875000000000000   1.0000000
N2   N   0.055653259512277   0.778150133643630   0.375000000000000   1.0000000
N2   N   0.388863506869918   0.777496800611248   0.375000000000000   1.0000000
N2   N   0.221829062289962   0.277790182782854   0.375000000000000   1.0000000
N2   N   0.721954058812155   0.777604171069448   0.375000000000000   1.0000000
N2   N   0.552785879774727   0.271378657252185   0.375000000000000   1.0000000
N2   N   0.889317182163444   0.277597958167208   0.375000000000000   1.0000000
N2   N   0.055555134723749   0.444445103495060   0.875000000000000   1.0000000
N2   N   0.222222395272751   0.944448033337851   0.875000000000000   1.0000000
N2   N   0.555557699325204   0.944449523654218   0.875000000000000   1.0000000
N2   N   0.388887549714995   0.444445591357017   0.875000000000000   1.0000000
N2   N   0.888892168308405   0.944449649140160   0.875000000000000   1.0000000
N2   N   0.055945408685126   0.945044126082945   0.375000000000000   1.0000000
N2   N   0.722225852365297   0.444447785323365   0.875000000000000   1.0000000
N2   N   0.389001857321427   0.945075610971854   0.375000000000000   1.0000000
N2   N   0.223325633388168   0.444208363340977   0.375000000000000   1.0000000
N2   N   0.222349011072156   0.610861967469460   0.375000000000000   1.0000000
N2   N   0.722137542522257   0.944146924366219   0.375000000000000   1.0000000
N2   N   0.888949803813766   0.444088082710952   0.375000000000000   1.0000000
N2   N   0.055551215718934   0.611107459052003   0.875000000000000   1.0000000
N2   N   0.222220578971403   0.111115148271026   0.875000000000000   1.0000000
N2   N   0.722219504304591   0.611110548921663   0.875000000000000   1.0000000
N2   N   0.555556661965506   0.111114202280683   0.875000000000000   1.0000000
N2   N   0.888890556781200   0.111113668664624   0.875000000000000   1.0000000
B2   B   0.111690397308678   0.056306916341292   0.375000000000000   1.0000000
B2   B   0.608823598774902   0.553935864569117   0.375000000000000   1.0000000
B2   B   0.444564984344707   0.056510840196935   0.375000000000000   1.0000000
B2   B   0.944673239881204   0.555663261391449   0.375000000000000   1.0000000
B2   B   0.777880828743364   0.055150835210507   0.375000000000000   1.0000000
B2   B   0.111126087677802   0.722237967577264   0.875000000000000   1.0000000
B2   B   0.444447743300104   0.722242560861966   0.875000000000000   1.0000000
B2   B   0.277770057355642   0.222208789857048   0.875000000000000   1.0000000
B2   B   0.777786289022337   0.722245648619660   0.875000000000000   1.0000000
B2   B   0.611095887444539   0.222205690364989   0.875000000000000   1.0000000
B2   B   0.944436633065506   0.222210200122199   0.875000000000000   1.0000000
B2   B   0.277825984330567   0.722260480965416   0.375000000000000   1.0000000
B2   B   0.110301359793192   0.221729849334313   0.375000000000000   1.0000000
B2   B   0.445870102575567   0.225283558403307   0.375000000000000   1.0000000
B2   B   0.611217056683457   0.722717746241138   0.375000000000000   1.0000000
B2   B   0.944868615941735   0.723213948773357   0.375000000000000   1.0000000
B2   B   0.778524127459611   0.221093839698305   0.375000000000000   1.0000000
B2   B   0.111123746778560   0.888905138370009   0.875000000000000   1.0000000
B2   B   0.444449127291624   0.888902145487398   0.875000000000000   1.0000000
B2   B   0.277762384159786   0.388882413243169   0.875000000000000   1.0000000
B2   B   0.611083910446318   0.388859281182255   0.875000000000000   1.0000000
B2   B   0.777784631878688   0.888911342066822   0.875000000000000   1.0000000
B2   B   0.944450682280569   0.388878399158947   0.875000000000000   1.0000000
B2   B   0.111598435457125   0.388640104769052   0.375000000000000   1.0000000
B2   B   0.277981500485322   0.889369873547126   0.375000000000000   1.0000000
B2   B   0.611051292167730   0.888846647603887   0.375000000000000   1.0000000
B2   B   0.944672370068375   0.889319543330083   0.375000000000000   1.0000000
B2   B   0.778704018155907   0.385899585460550   0.375000000000000   1.0000000
B2   B   0.277774321121380   0.555565047409060   0.875000000000000   1.0000000
B2   B   0.111108589370694   0.055555835484103   0.875000000000000   1.0000000
B2   B   0.611101761677085   0.555550294886667   0.875000000000000   1.0000000
B2   B   0.444445145121274   0.055549628287550   0.875000000000000   1.0000000
B2   B   0.944458572714692   0.555559596675523   0.875000000000000   1.0000000
B2   B   0.111333398497338   0.555457168352967   0.375000000000000   1.0000000
B2   B   0.777774484530808   0.055558117653476   0.875000000000000   1.0000000
B2   B   0.278344449112418   0.056589314676105   0.375000000000000   1.0000000
B2   B   0.445127494015592   0.555460392131429   0.375000000000000   1.0000000
B2   B   0.778039709558196   0.558407789915963   0.375000000000000   1.0000000
B2   B   0.611131696963478   0.055246748792282   0.375000000000000   1.0000000
B2   B   0.444440133048678   0.555565073014801   0.875000000000000   1.0000000
B2   B   0.944427408811373   0.055393165457675   0.375000000000000   1.0000000
B2   B   0.277785452284086   0.722237872919683   0.875000000000000   1.0000000
B2   B   0.111095258456202   0.222210256879562   0.875000000000000   1.0000000
B2   B   0.444445696447719   0.222204841722738   0.875000000000000   1.0000000
B2   B   0.611115373052624   0.722244003585811   0.875000000000000   1.0000000
B2   B   0.944462393753771   0.722247240743831   0.875000000000000   1.0000000
B2   B   0.777772746777111   0.222207660068724   0.875000000000000   1.0000000
B2   B   0.111294832310507   0.722591438888189   0.375000000000000   1.0000000
B2   B   0.444357446264943   0.721847980629607   0.375000000000000   1.0000000
B2   B   0.277524223824751   0.223710579101953   0.375000000000000   1.0000000
B2   B   0.777269473266922   0.722473325835137   0.375000000000000   1.0000000
B2   B   0.612083189669825   0.222376203544477   0.375000000000000   1.0000000
B2   B   0.944678001812723   0.221793425335912   0.375000000000000   1.0000000
B2   B   0.111101258653232   0.388880710115648   0.875000000000000   1.0000000
B2   B   0.277789228900900   0.888898891909540   0.875000000000000   1.0000000
B2   B   0.611114368583520   0.888907006444975   0.875000000000000   1.0000000
B2   B   0.444438929343021   0.388877467854381   0.875000000000000   1.0000000
B2   B   0.944454688899322   0.888911408599087   0.875000000000000   1.0000000
B2   B   0.111566768935572   0.889589427281480   0.375000000000000   1.0000000
B2   B   0.777779337054481   0.388869294951690   0.875000000000000   1.0000000
B2   B   0.444323342470797   0.889016516591405   0.375000000000000   1.0000000
B2   B   0.277095435675364   0.387502800032776   0.375000000000000   1.0000000
B2   B   0.277899548835658   0.555369720032729   0.375000000000000   1.0000000
B2   B   0.777841579267722   0.889025286155993   0.375000000000000   1.0000000
B2   B   0.945236291502963   0.388359833214543   0.375000000000000   1.0000000
B2   B   0.111118642087017   0.555560104732654   0.875000000000000   1.0000000
B2   B   0.277783096626704   0.055551855073672   0.875000000000000   1.0000000
B2   B   0.777784003255474   0.555563920031205   0.875000000000000   1.0000000
B2   B   0.611105788092985   0.055553984234283   0.875000000000000   1.0000000
B2   B   0.944439784794612   0.055558669878943   0.875000000000000   1.0000000
B2   B   0.055518289812710   0.111058513348255   0.124870281102418   1.0000000
B2   B   0.555575865855909   0.611163869537074   0.124859206608849   1.0000000
B2   B   0.388892840548834   0.111078002521838   0.124929932862731   1.0000000
B2   B   0.888958565401565   0.611178020467905   0.124961441246377   1.0000000
B2   B   0.722178915481317   0.111044777841350   0.124889190840217   1.0000000
B2   B   0.055614732152299   0.777821232304809   0.625123957303482   1.0000000
B2   B   0.388889397634610   0.777826385614159   0.625101175018354   1.0000000
B2   B   0.222161594224960   0.277719947777736   0.625196682729352   1.0000000
B2   B   0.722232282712661   0.777836422624975   0.625147188384039   1.0000000
B2   B   0.555560860721706   0.277776601652790   0.624794480858633   1.0000000
B2   B   0.888871463765487   0.277735136190860   0.625154177709081   1.0000000
B2   B   0.222265775746984   0.777823208055698   0.124908854670032   1.0000000
B2   B   0.055526212172284   0.277763129108080   0.124856557466888   1.0000000
B2   B   0.388907710640161   0.277714322832935   0.124676884250900   1.0000000
B2   B   0.555540365498705   0.777824381368051   0.124878351663416   1.0000000
B2   B   0.888927694019124   0.777830290751686   0.124838624505754   1.0000000
B2   B   0.722132526979987   0.277652324004846   0.124969156457244   1.0000000
B2   B   0.055562456864312   0.944424733916125   0.625117616263668   1.0000000
B2   B   0.388893241433129   0.944450164231961   0.625083824739616   1.0000000
B2   B   0.222194175508643   0.444480879577214   0.625158333909469   1.0000000
B2   B   0.555593482379513   0.444351717628737   0.625049747623475   1.0000000
B2   B   0.722201509668749   0.944442888436031   0.625099699932531   1.0000000
B2   B   0.888924090578807   0.444432962927020   0.625026819492844   1.0000000
B2   B   0.055574279881537   0.444470698930591   0.124859367088078   1.0000000
B2   B   0.222235925564278   0.944425599147585   0.124895420513650   1.0000000
B2   B   0.555527970972816   0.944437583496416   0.124918790773368   1.0000000
B2   B   0.388894580860461   0.444434197533728   0.124628569808494   1.0000000
B2   B   0.888879926035849   0.944444100790222   0.124885697768164   1.0000000
B2   B   0.722048358008497   0.444331030429828   0.124819617148860   1.0000000
B2   B   0.222243937338000   0.611177545655548   0.625116444229744   1.0000000
B2   B   0.055518289812710   0.111058513348255   0.625129718897583   1.0000000
B2   B   0.555575865855909   0.611163869537074   0.625140793391151   1.0000000
B2   B   0.388892840548834   0.111078002521838   0.625070067137269   1.0000000
B2   B   0.888958565401565   0.611178020467905   0.625038558753623   1.0000000
B2   B   0.055640346611792   0.611176289683033   0.124899396236239   1.0000000
B2   B   0.722178915481317   0.111044777841350   0.625110809159783   1.0000000
B2   B   0.222184743519256   0.111019885058873   0.124869120000686   1.0000000
B2   B   0.388875381465995   0.611178457833629   0.124847487977361   1.0000000
B2   B   0.722217730067193   0.611165810016361   0.124982503149515   1.0000000
B2   B   0.555526904171826   0.111073843016531   0.124949677489052   1.0000000
B2   B   0.388875381465995   0.611178457833629   0.625152512022639   1.0000000
B2   B   0.888855540133686   0.111070974160350   0.124890852045215   1.0000000
B2   B   0.222265775746984   0.777823208055698   0.625091145329968   1.0000000
B2   B   0.055526212172284   0.277763129108080   0.625143442533111   1.0000000
B2   B   0.388907710640161   0.277714322832935   0.625323115749100   1.0000000
B2   B   0.555540365498705   0.777824381368051   0.625121648336584   1.0000000
B2   B   0.888927694019124   0.777830290751686   0.625161375494246   1.0000000
B2   B   0.722132526979987   0.277652324004846   0.625030843542755   1.0000000
B2   B   0.055614732152299   0.777821232304809   0.124876042696518   1.0000000
B2   B   0.388889397634610   0.777826385614159   0.124898824981647   1.0000000
B2   B   0.222161594224960   0.277719947777736   0.124803317270648   1.0000000
B2   B   0.722232282712661   0.777836422624975   0.124852811615960   1.0000000
B2   B   0.555560860721706   0.277776601652790   0.125205519141367   1.0000000
B2   B   0.888871463765487   0.277735136190860   0.124845822290920   1.0000000
B2   B   0.055574279881537   0.444470698930591   0.625140632911922   1.0000000
B2   B   0.222235925564278   0.944425599147585   0.625104579486349   1.0000000
B2   B   0.555527970972816   0.944437583496416   0.625081209226632   1.0000000
B2   B   0.388894580860461   0.444434197533728   0.625371430191506   1.0000000
B2   B   0.888879926035849   0.944444100790222   0.625114302231836   1.0000000
B2   B   0.055562456864312   0.944424733916125   0.124882383736332   1.0000000
B2   B   0.722048358008497   0.444331030429828   0.625180382851140   1.0000000
B2   B   0.388893241433129   0.944450164231961   0.124916175260384   1.0000000
B2   B   0.222194175508643   0.444480879577214   0.124841666090531   1.0000000
B2   B   0.222243937338000   0.611177545655548   0.124883555770257   1.0000000
B2   B   0.555593482379513   0.444351717628737   0.124950252376525   1.0000000
B2   B   0.722201509668749   0.944442888436031   0.124900300067469   1.0000000
B2   B   0.888924090578807   0.444432962927020   0.124973180507156   1.0000000
B2   B   0.055640346611792   0.611176289683033   0.625100603763761   1.0000000
B2   B   0.222184743519256   0.111019885058873   0.625130879999313   1.0000000
B2   B   0.722217730067193   0.611165810016361   0.625017496850485   1.0000000
B2   B   0.555526904171826   0.111073843016531   0.625050322510947   1.0000000
B2   B   0.888855540133686   0.111070974160350   0.625109147954785   1.0000000


