data_1
_audit_creation_method   'vasp2cif'
_cell_length_a    14.93631414619966
_cell_length_b    14.936314146199727
_cell_length_c    13.341276283792837
_cell_angle_alpha    90.0
_cell_angle_beta    90.0
_cell_angle_gamma    119.99999999999984

_symmetry_space_group_name_H-M    'P 1'
loop_
_atom_site_label
_atom_site_type_symbol
_atom_site_fract_x
_atom_site_fract_y
_atom_site_fract_z
_atom_site_occupancy
Si2   Si   0.444444444444443   0.388888888888886   0.375000000000000   1.0000000
N2   N   0.111100208159318   0.055551673443922   0.125142088498707   1.0000000
N2   N   0.611107520648748   0.555564714417807   0.125056387253153   1.0000000
N2   N   0.444451465284600   0.055551673443922   0.125142088498707   1.0000000
N2   N   0.944442510847515   0.555555353436866   0.125016800478673   1.0000000
N2   N   0.777777777777779   0.055555555555557   0.124924794284663   1.0000000
N2   N   0.111111111111114   0.722222222222221   0.625021918528792   1.0000000
N2   N   0.444451465284600   0.722233125174020   0.624857911501290   1.0000000
N2   N   0.277768618915531   0.222225812684596   0.624943612746843   1.0000000
N2   N   0.777781659889413   0.722233125174020   0.624857911501290   1.0000000
N2   N   0.611121999516990   0.222211333816345   0.624848316842155   1.0000000
N2   N   0.944430380398470   0.222217880461075   0.625032322226226   1.0000000
N2   N   0.277777979896475   0.722220490743983   0.125016800478673   1.0000000
N2   N   0.111089334299363   0.222211333816345   0.125151683157834   1.0000000
N2   N   0.444457193769060   0.222225812684596   0.125056387253153   1.0000000
N2   N   0.611121999516990   0.722243999033969   0.125151683157834   1.0000000
N2   N   0.944442510847515   0.722220490743983   0.125016800478673   1.0000000
N2   N   0.777787500062601   0.222217880461075   0.124967677773773   1.0000000
N2   N   0.111112842589355   0.888890822485813   0.624983199521322   1.0000000
N2   N   0.444449811009034   0.888891572171183   0.625008040975099   1.0000000
N2   N   0.277768618915531   0.388876139564269   0.624943612746843   1.0000000
N2   N   0.611107520648748   0.388876139564269   0.624943612746843   1.0000000
N2   N   0.777787500062601   0.888902952934859   0.625032322226226   1.0000000
N2   N   0.944441761162146   0.388883522324294   0.625008040975099   1.0000000
N2   N   0.111100208159318   0.388881868048729   0.125142088498707   1.0000000
N2   N   0.277777979896475   0.888890822485813   0.125016800478673   1.0000000
N2   N   0.611115452872262   0.888902952934859   0.124967677773773   1.0000000
N2   N   0.444444444444443   0.388888888888886   0.122930868112152   1.0000000
N2   N   0.944441761162146   0.888891572171183   0.124991959024897   1.0000000
N2   N   0.777781659889413   0.388881868048729   0.125142088498707   1.0000000
N2   N   0.277779711577922   0.555553621755419   0.624813126462328   1.0000000
N2   N   0.111100208159318   0.055551673443922   0.624857911501290   1.0000000
N2   N   0.611107520648748   0.555564714417807   0.624943612746843   1.0000000
N2   N   0.444451465284600   0.055551673443922   0.624857911501290   1.0000000
N2   N   0.944442510847515   0.555555353436866   0.624983199521322   1.0000000
N2   N   0.111112842589355   0.555555353436866   0.125016800478673   1.0000000
N2   N   0.777777777777779   0.055555555555557   0.625075205715346   1.0000000
N2   N   0.277779711577922   0.055559423155844   0.125186873537677   1.0000000
N2   N   0.444457193769060   0.555564714417807   0.125056387253153   1.0000000
N2   N   0.777773910177491   0.555553621755419   0.125186873537677   1.0000000
N2   N   0.611115452872262   0.055545833270736   0.124967677773773   1.0000000
N2   N   0.444457193769060   0.555564714417807   0.624943612746843   1.0000000
N2   N   0.944430380398470   0.055545833270736   0.124967677773773   1.0000000
N2   N   0.277777979896475   0.722220490743983   0.624983199521322   1.0000000
N2   N   0.111089334299363   0.222211333816345   0.624848316842155   1.0000000
N2   N   0.444457193769060   0.222225812684596   0.624943612746843   1.0000000
N2   N   0.611121999516990   0.722243999033969   0.624848316842155   1.0000000
N2   N   0.944442510847515   0.722220490743983   0.624983199521322   1.0000000
N2   N   0.777787500062601   0.222217880461075   0.625032322226226   1.0000000
N2   N   0.111111111111114   0.722222222222221   0.124978081471224   1.0000000
N2   N   0.444451465284600   0.722233125174020   0.125142088498707   1.0000000
N2   N   0.277768618915531   0.222225812684596   0.125056387253153   1.0000000
N2   N   0.777781659889413   0.722233125174020   0.125142088498707   1.0000000
N2   N   0.611121999516990   0.222211333816345   0.125151683157834   1.0000000
N2   N   0.944430380398470   0.222217880461075   0.124967677773773   1.0000000
N2   N   0.111100208159318   0.388881868048729   0.624857911501290   1.0000000
N2   N   0.277777979896475   0.888890822485813   0.624983199521322   1.0000000
N2   N   0.611115452872262   0.888902952934859   0.625032322226226   1.0000000
N2   N   0.444444444444443   0.388888888888886   0.627069131887842   1.0000000
N2   N   0.944441761162146   0.888891572171183   0.625008040975099   1.0000000
N2   N   0.111112842589355   0.888890822485813   0.125016800478673   1.0000000
N2   N   0.777781659889413   0.388881868048729   0.624857911501290   1.0000000
N2   N   0.444449811009034   0.888891572171183   0.124991959024897   1.0000000
N2   N   0.277768618915531   0.388876139564269   0.125056387253153   1.0000000
N2   N   0.277779711577922   0.555553621755419   0.125186873537677   1.0000000
N2   N   0.611107520648748   0.388876139564269   0.125056387253153   1.0000000
N2   N   0.777787500062601   0.888902952934859   0.124967677773773   1.0000000
N2   N   0.944441761162146   0.388883522324294   0.124991959024897   1.0000000
N2   N   0.111112842589355   0.555555353436866   0.624983199521322   1.0000000
N2   N   0.277779711577922   0.055559423155844   0.624813126462328   1.0000000
N2   N   0.777773910177491   0.555553621755419   0.624813126462328   1.0000000
N2   N   0.611115452872262   0.055545833270736   0.625032322226226   1.0000000
N2   N   0.944430380398470   0.055545833270736   0.625032322226226   1.0000000
N2   N   0.054814256839448   0.110596076062138   0.375000000000000   1.0000000
N2   N   0.555950520208875   0.611901040417769   0.375000000000000   1.0000000
N2   N   0.387886600969413   0.106511880767225   0.375000000000000   1.0000000
N2   N   0.890576942079018   0.611955137706192   0.375000000000000   1.0000000
N2   N   0.722353203748767   0.110980129584559   0.375000000000000   1.0000000
N2   N   0.055556109881811   0.777777223451521   0.875000000000000   1.0000000
N2   N   0.388889637942405   0.777776624205150   0.875000000000000   1.0000000
N2   N   0.222231760363496   0.277782546848417   0.875000000000000   1.0000000
N2   N   0.722221623790981   0.777771870791175   0.875000000000000   1.0000000
N2   N   0.555550786484914   0.277782546848417   0.875000000000000   1.0000000
N2   N   0.888890460864675   0.277780921729342   0.875000000000000   1.0000000
N2   N   0.221889869103293   0.777611601218319   0.375000000000000   1.0000000
N2   N   0.054814256839448   0.277551514110649   0.375000000000000   1.0000000
N2   N   0.381266632424474   0.262533264848949   0.375000000000000   1.0000000
N2   N   0.555781819222694   0.778519076493895   0.375000000000000   1.0000000
N2   N   0.890154335020870   0.778776617864227   0.375000000000000   1.0000000
N2   N   0.722737257271198   0.277551514110649   0.375000000000000   1.0000000
N2   N   0.055556709128198   0.944446347070600   0.875000000000000   1.0000000
N2   N   0.388889637942405   0.944446347070600   0.875000000000000   1.0000000
N2   N   0.222224669091653   0.444443728669046   0.875000000000000   1.0000000
N2   N   0.555559543964082   0.444446438648705   0.875000000000000   1.0000000
N2   N   0.722222038766968   0.944444077533941   0.875000000000000   1.0000000
N2   N   0.888886986262728   0.444443695390923   0.875000000000000   1.0000000
N2   N   0.054556715469108   0.444711050489990   0.375000000000000   1.0000000
N2   N   0.221378195627153   0.942756391254310   0.375000000000000   1.0000000
N2   N   0.555754405495554   0.944543869414434   0.375000000000000   1.0000000
N2   N   0.381266632424474   0.452066700908854   0.375000000000000   1.0000000
N2   N   0.888789463918894   0.944543869414434   0.375000000000000   1.0000000
N2   N   0.726821452566107   0.445446732363916   0.375000000000000   1.0000000
N2   N   0.222222156569917   0.611111176763426   0.875000000000000   1.0000000
N2   N   0.055561462542145   0.111111709542351   0.875000000000000   1.0000000
N2   N   0.555550786484914   0.611101572969838   0.875000000000000   1.0000000
N2   N   0.388889604664283   0.111114273755935   0.875000000000000   1.0000000
N2   N   0.888889020193500   0.611111176763426   0.875000000000000   1.0000000
N2   N   0.055721732115023   0.611443464230045   0.375000000000000   1.0000000
N2   N   0.722222038766968   0.111111294566363   0.875000000000000   1.0000000
N2   N   0.218625279797810   0.106511880767225   0.375000000000000   1.0000000
N2   N   0.387886600969413   0.614708053535540   0.375000000000000   1.0000000
N2   N   0.726821452566107   0.614708053535540   0.375000000000000   1.0000000
N2   N   0.555781819222694   0.110596076062138   0.375000000000000   1.0000000
N2   N   0.388889604664283   0.611108664241672   0.875000000000000   1.0000000
N2   N   0.888626925835773   0.110980129584559   0.375000000000000   1.0000000
N2   N   0.222221113569713   0.777777223451521   0.875000000000000   1.0000000
N2   N   0.055561462542145   0.277783086333126   0.875000000000000   1.0000000
N2   N   0.388886894684623   0.277773789369257   0.875000000000000   1.0000000
N2   N   0.555550247000213   0.777771870791175   0.875000000000000   1.0000000
N2   N   0.888886986262728   0.777776624205150   0.875000000000000   1.0000000
N2   N   0.722221623790981   0.277783086333126   0.875000000000000   1.0000000
N2   N   0.055721732115023   0.777611601218319   0.375000000000000   1.0000000
N2   N   0.388622282843339   0.778776617864227   0.375000000000000   1.0000000
N2   N   0.221432292915575   0.277382813124451   0.375000000000000   1.0000000
N2   N   0.722737257271198   0.778519076493895   0.375000000000000   1.0000000
N2   N   0.555950520208875   0.277382813124451   0.375000000000000   1.0000000
N2   N   0.888789463918894   0.277578927837785   0.375000000000000   1.0000000
N2   N   0.055556709128198   0.444443695390923   0.875000000000000   1.0000000
N2   N   0.222222156569917   0.944444313139828   0.875000000000000   1.0000000
N2   N   0.555552411603988   0.944442872468653   0.875000000000000   1.0000000
N2   N   0.388886894684623   0.444446438648705   0.875000000000000   1.0000000
N2   N   0.888890460864675   0.944442872468653   0.875000000000000   1.0000000
N2   N   0.054556715469108   0.943178998312459   0.375000000000000   1.0000000
N2   N   0.722219059577400   0.444443728669046   0.875000000000000   1.0000000
N2   N   0.388622282843339   0.943178998312459   0.375000000000000   1.0000000
N2   N   0.218625279797810   0.445446732363916   0.375000000000000   1.0000000
N2   N   0.221378195627153   0.611955137706192   0.375000000000000   1.0000000
N2   N   0.570800068484380   0.452066700908854   0.375000000000000   1.0000000
N2   N   0.722353203748767   0.944706407497556   0.375000000000000   1.0000000
N2   N   0.890154335020870   0.444711050489990   0.375000000000000   1.0000000
N2   N   0.055556109881811   0.611112219763621   0.875000000000000   1.0000000
N2   N   0.222224669091653   0.111114273755935   0.875000000000000   1.0000000
N2   N   0.722219059577400   0.611108664241672   0.875000000000000   1.0000000
N2   N   0.555550247000213   0.111111709542351   0.875000000000000   1.0000000
N2   N   0.888889255799388   0.111111294566363   0.875000000000000   1.0000000
B2   B   0.108711801410795   0.053266455379258   0.375000000000000   1.0000000
B2   B   0.617376454704231   0.560921739030550   0.375000000000000   1.0000000
B2   B   0.444554653968461   0.053266455379258   0.375000000000000   1.0000000
B2   B   0.945204222410330   0.555807260283351   0.375000000000000   1.0000000
B2   B   0.777777777777779   0.055555555555557   0.375000000000000   1.0000000
B2   B   0.111111111111114   0.722222222222221   0.875000000000000   1.0000000
B2   B   0.444443414106505   0.722220819830499   0.875000000000000   1.0000000
B2   B   0.277765448468154   0.222233677806954   0.875000000000000   1.0000000
B2   B   0.777777405724000   0.722220819830499   0.875000000000000   1.0000000
B2   B   0.611096111891978   0.222237221441350   0.875000000000000   1.0000000
B2   B   0.944435613660166   0.222238240496392   0.875000000000000   1.0000000
B2   B   0.277526073049992   0.722730295460327   0.375000000000000   1.0000000
B2   B   0.110293886559446   0.221813609946386   0.375000000000000   1.0000000
B2   B   0.443545284326326   0.215956878629108   0.375000000000000   1.0000000
B2   B   0.611519723386951   0.723039446773889   0.375000000000000   1.0000000
B2   B   0.945204222410330   0.722730295460327   0.375000000000000   1.0000000
B2   B   0.777900376442957   0.221908592279516   0.375000000000000   1.0000000
B2   B   0.111136960439909   0.888902006756816   0.875000000000000   1.0000000
B2   B   0.444467127039731   0.888900230186522   0.875000000000000   1.0000000
B2   B   0.277765448468154   0.388865103994523   0.875000000000000   1.0000000
B2   B   0.611099655526395   0.388865103994523   0.875000000000000   1.0000000
B2   B   0.777802626836235   0.888897719673162   0.875000000000000   1.0000000
B2   B   0.944433103146807   0.388866206293598   0.875000000000000   1.0000000
B2   B   0.108711801410795   0.388778679364868   0.375000000000000   1.0000000
B2   B   0.277526073049992   0.888129110922998   0.375000000000000   1.0000000
B2   B   0.611424741053827   0.889325117496779   0.375000000000000   1.0000000
B2   B   0.944309289011669   0.889024044321659   0.375000000000000   1.0000000
B2   B   0.780066877954070   0.388778679364868   0.375000000000000   1.0000000
B2   B   0.277765507529515   0.555567825803824   0.875000000000000   1.0000000
B2   B   0.111112513502848   0.055555927609351   0.875000000000000   1.0000000
B2   B   0.611099655526395   0.555567884865183   0.875000000000000   1.0000000
B2   B   0.444443414106505   0.055555927609351   0.875000000000000   1.0000000
B2   B   0.944431326576513   0.555568287016423   0.875000000000000   1.0000000
B2   B   0.110603037873012   0.555807260283351   0.375000000000000   1.0000000
B2   B   0.777777777777779   0.055555555555557   0.875000000000000   1.0000000
B2   B   0.276457444901968   0.052914889803929   0.375000000000000   1.0000000
B2   B   0.443545284326326   0.560921739030550   0.375000000000000   1.0000000
B2   B   0.780418443529399   0.556875888431372   0.375000000000000   1.0000000
B2   B   0.611424741053827   0.055432956890376   0.375000000000000   1.0000000
B2   B   0.444468229338806   0.555567884865183   0.875000000000000   1.0000000
B2   B   0.944008215836549   0.055432956890376   0.375000000000000   1.0000000
B2   B   0.277765046316912   0.722196372893420   0.875000000000000   1.0000000
B2   B   0.111141109549368   0.222237221441350   0.875000000000000   1.0000000
B2   B   0.444468229338806   0.222233677806954   0.875000000000000   1.0000000
B2   B   0.611096111891978   0.722192223783970   0.875000000000000   1.0000000
B2   B   0.944431326576513   0.722196372893420   0.875000000000000   1.0000000
B2   B   0.777802626836235   0.222238240496392   0.875000000000000   1.0000000
B2   B   0.111111111111114   0.722222222222221   0.375000000000000   1.0000000
B2   B   0.444554653968461   0.724621531922540   0.375000000000000   1.0000000
B2   B   0.272411594302779   0.215956878629108   0.375000000000000   1.0000000
B2   B   0.780066877954070   0.724621531922540   0.375000000000000   1.0000000
B2   B   0.611519723386951   0.221813609946386   0.375000000000000   1.0000000
B2   B   0.944008215836549   0.221908592279516   0.375000000000000   1.0000000
B2   B   0.111112513502848   0.388889919226823   0.875000000000000   1.0000000
B2   B   0.277765046316912   0.888902006756816   0.875000000000000   1.0000000
B2   B   0.611095092836930   0.888897719673162   0.875000000000000   1.0000000
B2   B   0.444444444444443   0.388888888888886   0.875000000000000   1.0000000
B2   B   0.944433103146807   0.888900230186522   0.875000000000000   1.0000000
B2   B   0.110603037873012   0.888129110922998   0.375000000000000   1.0000000
B2   B   0.777777405724000   0.388889919226823   0.875000000000000   1.0000000
B2   B   0.444714755310001   0.889024044321659   0.375000000000000   1.0000000
B2   B   0.272411594302779   0.389788049007002   0.375000000000000   1.0000000
B2   B   0.276457444901968   0.556875888431373   0.375000000000000   1.0000000
B2   B   0.617376454704231   0.389788049007002   0.375000000000000   1.0000000
B2   B   0.777900376442957   0.889325117496779   0.375000000000000   1.0000000
B2   B   0.944309289011669   0.388618578023327   0.375000000000000   1.0000000
B2   B   0.111136960439909   0.555568287016423   0.875000000000000   1.0000000
B2   B   0.277765507529515   0.055531015059021   0.875000000000000   1.0000000
B2   B   0.777802318274307   0.555567825803824   0.875000000000000   1.0000000
B2   B   0.611095092836930   0.055530706497101   0.875000000000000   1.0000000
B2   B   0.944435613660166   0.055530706497101   0.875000000000000   1.0000000
B2   B   0.055555264880932   0.111098671296019   0.125103092628990   1.0000000
B2   B   0.555562798373262   0.611125596746510   0.125166738627696   1.0000000
B2   B   0.388909820846074   0.111103709221342   0.125211511676708   1.0000000
B2   B   0.888874575120948   0.611103954227137   0.125081418782844   1.0000000
B2   B   0.722238555327154   0.111094778006191   0.124989506219672   1.0000000
B2   B   0.055567099650562   0.777766233682762   0.624987280071102   1.0000000
B2   B   0.388910987280766   0.777765017976598   0.624938954115006   1.0000000
B2   B   0.222207736586827   0.277770534960081   0.624833261372308   1.0000000
B2   B   0.722234662037315   0.777778068452400   0.624896907371006   1.0000000
B2   B   0.555562798373262   0.277770534960081   0.624833261372308   1.0000000
B2   B   0.888884345195500   0.277768690391017   0.624996235581726   1.0000000
B2   B   0.222199134032212   0.777766233682762   0.125012719928893   1.0000000
B2   B   0.055555264880932   0.277789926918245   0.125103092628990   1.0000000
B2   B   0.388890507119461   0.277781014238935   0.124362322890726   1.0000000
B2   B   0.555543406415083   0.777778068452400   0.125103092628990   1.0000000
B2   B   0.888854030695820   0.777765017976598   0.125061045884996   1.0000000
B2   B   0.722234662037315   0.277789926918245   0.125103092628990   1.0000000
B2   B   0.055568315356743   0.944479302637508   0.624938954115006   1.0000000
B2   B   0.388910987280766   0.944479302637508   0.624938954115006   1.0000000
B2   B   0.222193888375261   0.444423512487255   0.624788488323300   1.0000000
B2   B   0.555552319094407   0.444442826213868   0.625637677109274   1.0000000
B2   B   0.722238555327154   0.944477110654292   0.625010493780325   1.0000000
B2   B   0.888854030695820   0.444422346052563   0.624938954115006   1.0000000
B2   B   0.055568315356743   0.444422346052563   0.125061045884996   1.0000000
B2   B   0.222229379106194   0.944458758212380   0.125081418782844   1.0000000
B2   B   0.555564642942332   0.944448988137829   0.125003764418285   1.0000000
B2   B   0.388890507119461   0.444442826213868   0.124362322890726   1.0000000
B2   B   0.888884345195500   0.944448988137829   0.125003764418285   1.0000000
B2   B   0.722229624111987   0.444423512487255   0.125211511676708   1.0000000
B2   B   0.222229379106194   0.611103954227137   0.624918581217159   1.0000000
B2   B   0.055555264880932   0.111098671296019   0.624896907371006   1.0000000
B2   B   0.555562798373262   0.611125596746510   0.624833261372308   1.0000000
B2   B   0.388909820846074   0.111103709221342   0.624788488323300   1.0000000
B2   B   0.888874575120948   0.611103954227137   0.624918581217159   1.0000000
B2   B   0.055567099650562   0.611134199301131   0.125012719928893   1.0000000
B2   B   0.722238555327154   0.111094778006191   0.625010493780325   1.0000000
B2   B   0.222193888375261   0.111103709221342   0.125211511676708   1.0000000
B2   B   0.388909820846074   0.611139444958082   0.125211511676708   1.0000000
B2   B   0.722229624111987   0.611139444958082   0.125211511676708   1.0000000
B2   B   0.555543406415083   0.111098671296019   0.125103092628990   1.0000000
B2   B   0.388909820846074   0.611139444958082   0.624788488323300   1.0000000
B2   B   0.888856222679037   0.111094778006191   0.124989506219672   1.0000000
B2   B   0.222199134032212   0.777766233682762   0.624987280071102   1.0000000
B2   B   0.055555264880932   0.277789926918245   0.624896907371006   1.0000000
B2   B   0.388890507119461   0.277781014238935   0.625637677109274   1.0000000
B2   B   0.555543406415083   0.777778068452400   0.624896907371006   1.0000000
B2   B   0.888854030695820   0.777765017976598   0.624938954115006   1.0000000
B2   B   0.722234662037315   0.277789926918245   0.624896907371006   1.0000000
B2   B   0.055567099650562   0.777766233682762   0.125012719928893   1.0000000
B2   B   0.388910987280766   0.777765017976598   0.125061045884996   1.0000000
B2   B   0.222207736586827   0.277770534960081   0.125166738627696   1.0000000
B2   B   0.722234662037315   0.777778068452400   0.125103092628990   1.0000000
B2   B   0.555562798373262   0.277770534960081   0.125166738627696   1.0000000
B2   B   0.888884345195500   0.277768690391017   0.125003764418285   1.0000000
B2   B   0.055568315356743   0.444422346052563   0.624938954115006   1.0000000
B2   B   0.222229379106194   0.944458758212380   0.624918581217159   1.0000000
B2   B   0.555564642942332   0.944448988137829   0.624996235581726   1.0000000
B2   B   0.388890507119461   0.444442826213868   0.625637677109274   1.0000000
B2   B   0.888884345195500   0.944448988137829   0.624996235581726   1.0000000
B2   B   0.055568315356743   0.944479302637508   0.125061045884996   1.0000000
B2   B   0.722229624111987   0.444423512487255   0.624788488323300   1.0000000
B2   B   0.388910987280766   0.944479302637508   0.125061045884996   1.0000000
B2   B   0.222193888375261   0.444423512487255   0.125211511676708   1.0000000
B2   B   0.222229379106194   0.611103954227137   0.125081418782844   1.0000000
B2   B   0.555552319094407   0.444442826213868   0.124362322890726   1.0000000
B2   B   0.722238555327154   0.944477110654292   0.124989506219672   1.0000000
B2   B   0.888854030695820   0.444422346052563   0.125061045884996   1.0000000
B2   B   0.055567099650562   0.611134199301131   0.624987280071102   1.0000000
B2   B   0.222193888375261   0.111103709221342   0.624788488323300   1.0000000
B2   B   0.722229624111987   0.611139444958082   0.624788488323300   1.0000000
B2   B   0.555543406415083   0.111098671296019   0.624896907371006   1.0000000
B2   B   0.888856222679037   0.111094778006191   0.625010493780325   1.0000000


