data_1
_audit_creation_method   'vasp2cif'
_cell_length_a    14.93631414619966
_cell_length_b    14.936314146199727
_cell_length_c    13.341276283792837
_cell_angle_alpha    90.0
_cell_angle_beta    90.0
_cell_angle_gamma    119.99999999999984

_symmetry_space_group_name_H-M    'P 1'
loop_
_atom_site_label
_atom_site_type_symbol
_atom_site_fract_x
_atom_site_fract_y
_atom_site_fract_z
_atom_site_occupancy
C2   C   0.435040245279341   0.375348182264709   0.375000000000000   1.0000000
C2   C   0.544393831905979   0.404684226044967   0.375000000000000   1.0000000
N2   N   0.111048182118709   0.055566380117817   0.125072362606420   1.0000000
N2   N   0.611088719406002   0.555521909573002   0.124463376310144   1.0000000
N2   N   0.444388585962980   0.055610692523189   0.125112090794554   1.0000000
N2   N   0.944444549032692   0.555588507494643   0.124762645955161   1.0000000
N2   N   0.777697154155592   0.055565779101853   0.125202612370968   1.0000000
N2   N   0.111085276230496   0.722246260928647   0.624982912362212   1.0000000
N2   N   0.444382919646855   0.722185655856666   0.624914499756676   1.0000000
N2   N   0.277727177749879   0.222222691679415   0.624844675337646   1.0000000
N2   N   0.777777799203589   0.722247600687777   0.625064330627734   1.0000000
N2   N   0.611069104797488   0.222305251597607   0.625210690482429   1.0000000
N2   N   0.944412600598053   0.222223369691119   0.624900451894706   1.0000000
N2   N   0.277732915618209   0.722223360672112   0.125033928615413   1.0000000
N2   N   0.111059287616461   0.222205530317891   0.125095172479871   1.0000000
N2   N   0.444435181140411   0.222297220376683   0.125209783724836   1.0000000
N2   N   0.611055763310301   0.722165843625713   0.125065686128986   1.0000000
N2   N   0.944462497333173   0.722294263288696   0.124909366173276   1.0000000
N2   N   0.777765120051792   0.222266683431196   0.124983365201789   1.0000000
N2   N   0.111083619972007   0.888934568822379   0.624931730048456   1.0000000
N2   N   0.444380153217612   0.888906215111065   0.624935613041679   1.0000000
N2   N   0.277761014166197   0.388862918272057   0.624811406492975   1.0000000
N2   N   0.611205544987445   0.388983841733835   0.625293860954247   1.0000000
N2   N   0.777703192299376   0.888870816965760   0.624816305730950   1.0000000
N2   N   0.944463945315696   0.388903835573195   0.625087728264057   1.0000000
N2   N   0.111093311495840   0.388879084342426   0.125108140355090   1.0000000
N2   N   0.277732229401185   0.888921100446606   0.125042495436218   1.0000000
N2   N   0.611025623363644   0.888875107535438   0.125124547969811   1.0000000
N2   N   0.444441043266550   0.388873450949948   0.124901575677212   1.0000000
N2   N   0.944411832191139   0.888923208426101   0.125082249797673   1.0000000
N2   N   0.777847156558029   0.388860151054942   0.123515750293749   1.0000000
N2   N   0.277739345517976   0.555527381330294   0.624906950505565   1.0000000
N2   N   0.111048182118709   0.055566380117817   0.624927637393580   1.0000000
N2   N   0.611088719406002   0.555521909573002   0.625536623689856   1.0000000
N2   N   0.444388585962980   0.055610692523189   0.624887909205446   1.0000000
N2   N   0.944444549032692   0.555588507494643   0.625237354044839   1.0000000
N2   N   0.111086880271482   0.555562698993395   0.125032122206509   1.0000000
N2   N   0.777697154155592   0.055565779101853   0.624797387629032   1.0000000
N2   N   0.277736269436541   0.055599034281307   0.125131848065994   1.0000000
N2   N   0.444403365689454   0.555490421644138   0.125068204818449   1.0000000
N2   N   0.777847156418242   0.555730347046386   0.123504886380854   1.0000000
N2   N   0.611042504290241   0.055610731989684   0.125122361197516   1.0000000
N2   N   0.444403365689454   0.555490421644138   0.624931795181552   1.0000000
N2   N   0.944371600898696   0.055549547631677   0.125093573590556   1.0000000
N2   N   0.277732915618209   0.722223360672112   0.624966071384587   1.0000000
N2   N   0.111059287616461   0.222205530317891   0.624904827520129   1.0000000
N2   N   0.444435181140411   0.222297220376683   0.624790216275164   1.0000000
N2   N   0.611055763310301   0.722165843625713   0.624934313871014   1.0000000
N2   N   0.944462497333173   0.722294263288696   0.625090633826725   1.0000000
N2   N   0.777765120051792   0.222266683431196   0.625016634798211   1.0000000
N2   N   0.111085276230496   0.722246260928647   0.125017087637787   1.0000000
N2   N   0.444382919646855   0.722185655856666   0.125085500243325   1.0000000
N2   N   0.277727177749879   0.222222691679415   0.125155324662355   1.0000000
N2   N   0.777777799203589   0.722247600687777   0.124935669372266   1.0000000
N2   N   0.611069104797488   0.222305251597607   0.124789309517570   1.0000000
N2   N   0.944412600598053   0.222223369691119   0.125099548105287   1.0000000
N2   N   0.111093311495840   0.388879084342426   0.624891859644910   1.0000000
N2   N   0.277732229401185   0.888921100446606   0.624957504563783   1.0000000
N2   N   0.611025623363644   0.888875107535438   0.624875452030188   1.0000000
N2   N   0.444441043266550   0.388873450949948   0.625098424322788   1.0000000
N2   N   0.944411832191139   0.888923208426101   0.624917750202326   1.0000000
N2   N   0.111083619972007   0.888934568822379   0.125068269951543   1.0000000
N2   N   0.777847156558029   0.388860151054942   0.626484249706251   1.0000000
N2   N   0.444380153217612   0.888906215111065   0.125064386958321   1.0000000
N2   N   0.277761014166197   0.388862918272057   0.125188593507025   1.0000000
N2   N   0.277739345517976   0.555527381330294   0.125093049494435   1.0000000
N2   N   0.611205544987445   0.388983841733835   0.124706139045753   1.0000000
N2   N   0.777703192299376   0.888870816965760   0.125183694269050   1.0000000
N2   N   0.944463945315696   0.388903835573195   0.124912271735943   1.0000000
N2   N   0.111086880271482   0.555562698993395   0.624967877793484   1.0000000
N2   N   0.277736269436541   0.055599034281307   0.624868151934007   1.0000000
N2   N   0.777847156418242   0.555730347046386   0.626495113619146   1.0000000
N2   N   0.611042504290241   0.055610731989684   0.624877638802484   1.0000000
N2   N   0.944371600898696   0.055549547631677   0.624906426409443   1.0000000
N2   N   0.049786988997996   0.108335085716482   0.375000000000000   1.0000000
N2   N   0.558762954202520   0.598170961387746   0.375000000000000   1.0000000
N2   N   0.387546241425934   0.115431649129839   0.375000000000000   1.0000000
N2   N   0.895906086029092   0.611017739362162   0.375000000000000   1.0000000
N2   N   0.721220514616053   0.119656669611883   0.375000000000000   1.0000000
N2   N   0.055572302149823   0.777793964040699   0.875000000000000   1.0000000
N2   N   0.388905449680482   0.777794409743452   0.875000000000000   1.0000000
N2   N   0.222236807626807   0.277793376215330   0.875000000000000   1.0000000
N2   N   0.722227234750175   0.777795672471531   0.875000000000000   1.0000000
N2   N   0.555568721967399   0.277785735197795   0.875000000000000   1.0000000
N2   N   0.888898537061481   0.277788868266616   0.875000000000000   1.0000000
N2   N   0.228929497868064   0.781642129627588   0.375000000000000   1.0000000
N2   N   0.051467957784016   0.277627785006925   0.375000000000000   1.0000000
N2   N   0.375402907680537   0.272972265455275   0.375000000000000   1.0000000
N2   N   0.558518427120916   0.774851507503586   0.375000000000000   1.0000000
N2   N   0.887593400662743   0.772455920906626   0.375000000000000   1.0000000
N2   N   0.721813489626923   0.297685871121872   0.375000000000000   1.0000000
N2   N   0.055566297567173   0.944460255058208   0.875000000000000   1.0000000
N2   N   0.388906644752042   0.944456162778539   0.875000000000000   1.0000000
N2   N   0.222238977315386   0.444460010591139   0.875000000000000   1.0000000
N2   N   0.555567769643717   0.444462783530078   0.875000000000000   1.0000000
N2   N   0.722228251703617   0.944455615424815   0.875000000000000   1.0000000
N2   N   0.888908398674486   0.444459426120741   0.875000000000000   1.0000000
N2   N   0.058977506050166   0.446826075411725   0.375000000000000   1.0000000
N2   N   0.223265394779078   0.945837612296480   0.375000000000000   1.0000000
N2   N   0.558261053469664   0.950403317168047   0.375000000000000   1.0000000
N2   N   0.389713692574384   0.435169966302779   0.375000000000000   1.0000000
N2   N   0.885414063462722   0.940987790378334   0.375000000000000   1.0000000
N2   N   0.222240772874166   0.611126016701215   0.875000000000000   1.0000000
N2   N   0.055563463390768   0.111122001056347   0.875000000000000   1.0000000
N2   N   0.555562557508609   0.611133543414404   0.875000000000000   1.0000000
N2   N   0.388908199192851   0.111122482717565   0.875000000000000   1.0000000
N2   N   0.888907772984841   0.611126226111270   0.875000000000000   1.0000000
N2   N   0.065371544506230   0.615699706414467   0.375000000000000   1.0000000
N2   N   0.722225981602691   0.111112773398737   0.875000000000000   1.0000000
N2   N   0.215773095148443   0.107602091396944   0.375000000000000   1.0000000
N2   N   0.394035858331187   0.607358723878683   0.375000000000000   1.0000000
N2   N   0.723717201888930   0.593669129696297   0.375000000000000   1.0000000
N2   N   0.557317532587517   0.127434913589832   0.375000000000000   1.0000000
N2   N   0.388905232529845   0.611129228468037   0.875000000000000   1.0000000
N2   N   0.885052233865458   0.111609722179494   0.375000000000000   1.0000000
N2   N   0.222243426896641   0.777794629314670   0.875000000000000   1.0000000
N2   N   0.055565910517847   0.277790547768712   0.875000000000000   1.0000000
N2   N   0.388907461526546   0.277794504244937   0.875000000000000   1.0000000
N2   N   0.555563720340473   0.777795765252650   0.875000000000000   1.0000000
N2   N   0.888899352277615   0.777794424059714   0.875000000000000   1.0000000
N2   N   0.722225164432634   0.277772010206195   0.875000000000000   1.0000000
N2   N   0.058992280620280   0.778414284161404   0.375000000000000   1.0000000
N2   N   0.394546489427197   0.779716897812577   0.375000000000000   1.0000000
N2   N   0.214681524849028   0.274451754913086   0.375000000000000   1.0000000
N2   N   0.722005925802848   0.769683103721461   0.375000000000000   1.0000000
N2   N   0.546190891077899   0.305537059466452   0.375000000000000   1.0000000
N2   N   0.886464978016832   0.282056095860579   0.375000000000000   1.0000000
N2   N   0.055570248070818   0.444460180922679   0.875000000000000   1.0000000
N2   N   0.222240257035053   0.944461108873556   0.875000000000000   1.0000000
N2   N   0.555563001364980   0.944452343185410   0.875000000000000   1.0000000
N2   N   0.388908041787572   0.444465425338026   0.875000000000000   1.0000000
N2   N   0.888896997655279   0.944457668526539   0.875000000000000   1.0000000
N2   N   0.052155270506097   0.941187264479397   0.375000000000000   1.0000000
N2   N   0.722232153206726   0.444455961743757   0.875000000000000   1.0000000
N2   N   0.393343665543972   0.950482432803153   0.375000000000000   1.0000000
N2   N   0.224171936803363   0.443330670858780   0.375000000000000   1.0000000
N2   N   0.229221000483393   0.612762311472985   0.375000000000000   1.0000000
N2   N   0.721453675425843   0.944452580859730   0.375000000000000   1.0000000
N2   N   0.895479758504917   0.451635724111408   0.375000000000000   1.0000000
N2   N   0.055576041874525   0.611126316488156   0.875000000000000   1.0000000
N2   N   0.222235538533190   0.111125315630947   0.875000000000000   1.0000000
N2   N   0.722224300540431   0.611132776421045   0.875000000000000   1.0000000
N2   N   0.555563370466750   0.111107873318170   0.875000000000000   1.0000000
N2   N   0.888896197012922   0.111119836613169   0.875000000000000   1.0000000
B2   B   0.104554098834227   0.051503768027075   0.375000000000000   1.0000000
B2   B   0.615031756495768   0.537006776747468   0.375000000000000   1.0000000
B2   B   0.446800139540872   0.062983579825433   0.375000000000000   1.0000000
B2   B   0.954972228609703   0.560807424557213   0.375000000000000   1.0000000
B2   B   0.774342539030908   0.058278098331435   0.375000000000000   1.0000000
B2   B   0.111087836383231   0.722200380656782   0.875000000000000   1.0000000
B2   B   0.444467004618070   0.722261514146771   0.875000000000000   1.0000000
B2   B   0.277792954555552   0.222226818692385   0.875000000000000   1.0000000
B2   B   0.777791903044899   0.722206000965317   0.875000000000000   1.0000000
B2   B   0.611182846005812   0.222258007140552   0.875000000000000   1.0000000
B2   B   0.944411380642754   0.222248283517945   0.875000000000000   1.0000000
B2   B   0.283594635463866   0.724573594686950   0.375000000000000   1.0000000
B2   B   0.103330754807689   0.219361309756305   0.375000000000000   1.0000000
B2   B   0.438070288809819   0.225086621663989   0.375000000000000   1.0000000
B2   B   0.612031447495979   0.713905411434156   0.375000000000000   1.0000000
B2   B   0.946817200837551   0.719841154493440   0.375000000000000   1.0000000
B2   B   0.774898306118940   0.234082668835375   0.375000000000000   1.0000000
B2   B   0.111091944333349   0.888850983183527   0.875000000000000   1.0000000
B2   B   0.444466027577474   0.888904591842302   0.875000000000000   1.0000000
B2   B   0.277787447421673   0.388925879349939   0.875000000000000   1.0000000
B2   B   0.611228177014661   0.388943863414007   0.875000000000000   1.0000000
B2   B   0.777777450250422   0.888889021747965   0.875000000000000   1.0000000
B2   B   0.944413984140783   0.388926495749087   0.875000000000000   1.0000000
B2   B   0.111375235730004   0.389175432634671   0.375000000000000   1.0000000
B2   B   0.281954763616491   0.892676894024886   0.375000000000000   1.0000000
B2   B   0.611310350471127   0.889349600349702   0.375000000000000   1.0000000
B2   B   0.940538506963692   0.883870854978619   0.375000000000000   1.0000000
B2   B   0.783766033583725   0.416770041495007   0.375000000000000   1.0000000
B2   B   0.277778521619014   0.555594980199783   0.875000000000000   1.0000000
B2   B   0.111087468169508   0.055530595519078   0.875000000000000   1.0000000
B2   B   0.611191017596602   0.555602191153479   0.875000000000000   1.0000000
B2   B   0.444492460774301   0.055561169955256   0.875000000000000   1.0000000
B2   B   0.944420264905585   0.555547687912064   0.875000000000000   1.0000000
B2   B   0.117749828693649   0.558075053725565   0.375000000000000   1.0000000
B2   B   0.777772236386987   0.055574309716832   0.875000000000000   1.0000000
B2   B   0.275502537956885   0.056035793922613   0.375000000000000   1.0000000
B2   B   0.449082462490197   0.549888252496155   0.375000000000000   1.0000000
B2   B   0.784382190386960   0.534983889945042   0.375000000000000   1.0000000
B2   B   0.611059279741673   0.065538253412342   0.375000000000000   1.0000000
B2   B   0.444495295428312   0.555615848863359   0.875000000000000   1.0000000
B2   B   0.938661721913846   0.052971018955500   0.375000000000000   1.0000000
B2   B   0.277776430733127   0.722234694436105   0.875000000000000   1.0000000
B2   B   0.111078775658293   0.222226947762702   0.875000000000000   1.0000000
B2   B   0.444527105034641   0.222246014376264   0.875000000000000   1.0000000
B2   B   0.611144647383049   0.722254717211764   0.875000000000000   1.0000000
B2   B   0.944423966214314   0.722174836446415   0.875000000000000   1.0000000
B2   B   0.777782733512023   0.222263182803662   0.875000000000000   1.0000000
B2   B   0.117656529617257   0.725688200577880   0.375000000000000   1.0000000
B2   B   0.448234064023482   0.720736281937746   0.375000000000000   1.0000000
B2   B   0.265284688428773   0.216396286113056   0.375000000000000   1.0000000
B2   B   0.776437525864113   0.709715444992027   0.375000000000000   1.0000000
B2   B   0.612678797912193   0.245849127506866   0.375000000000000   1.0000000
B2   B   0.939573168867042   0.223660111349450   0.375000000000000   1.0000000
B2   B   0.111077644967060   0.388919561519773   0.875000000000000   1.0000000
B2   B   0.277785375166779   0.888877346409958   0.875000000000000   1.0000000
B2   B   0.611127013716546   0.888913925224203   0.875000000000000   1.0000000
B2   B   0.444527164012217   0.388940519877197   0.875000000000000   1.0000000
B2   B   0.944423771147857   0.888852867740023   0.875000000000000   1.0000000
B2   B   0.111325740461428   0.888487190487952   0.375000000000000   1.0000000
B2   B   0.777803054583902   0.388929669173764   0.875000000000000   1.0000000
B2   B   0.447914237492505   0.892628647835821   0.375000000000000   1.0000000
B2   B   0.275026256449252   0.384312078783956   0.375000000000000   1.0000000
B2   B   0.282465101654980   0.555063140693989   0.375000000000000   1.0000000
B2   B   0.774817994375739   0.884005182049525   0.375000000000000   1.0000000
B2   B   0.946382133644426   0.393709972963928   0.375000000000000   1.0000000
B2   B   0.111081427255657   0.555571649736362   0.875000000000000   1.0000000
B2   B   0.277795181651815   0.055540143078581   0.875000000000000   1.0000000
B2   B   0.777807230347737   0.555548091034800   0.875000000000000   1.0000000
B2   B   0.611137431684362   0.055577867733183   0.875000000000000   1.0000000
B2   B   0.944416602749672   0.055547835997952   0.875000000000000   1.0000000
B2   B   0.055406128169719   0.111038265543255   0.124946913102455   1.0000000
B2   B   0.555682435817295   0.611085611120516   0.124738954282128   1.0000000
B2   B   0.388869072527680   0.111103700854853   0.124904262438808   1.0000000
B2   B   0.888808238402574   0.611040201646782   0.125021145743335   1.0000000
B2   B   0.722222072430539   0.111274596967718   0.125130203745142   1.0000000
B2   B   0.055416584375686   0.777680173860862   0.624871089805347   1.0000000
B2   B   0.388796612628508   0.777781149083880   0.624976167518115   1.0000000
B2   B   0.222063492944284   0.277721867699954   0.625243397926522   1.0000000
B2   B   0.722266211784212   0.777715062772512   0.624939909185884   1.0000000
B2   B   0.555841421119153   0.278074955767087   0.625249121914341   1.0000000
B2   B   0.888848372543003   0.277919067136068   0.624906818868378   1.0000000
B2   B   0.222060933502532   0.777718056321766   0.125043966421663   1.0000000
B2   B   0.055413921528522   0.277796650037828   0.125006220426123   1.0000000
B2   B   0.388898721199390   0.277772044568856   0.124451692239877   1.0000000
B2   B   0.555540427536566   0.777767712049083   0.125043385400812   1.0000000
B2   B   0.888882473387850   0.777687482463751   0.125079728145110   1.0000000
B2   B   0.722405060437296   0.278119855372410   0.124695390298833   1.0000000
B2   B   0.055435057524981   0.944341052473093   0.624971708010975   1.0000000
B2   B   0.388815728734159   0.944447796776614   0.624976540669145   1.0000000
B2   B   0.222076378181369   0.444466136223298   0.625051384863706   1.0000000
B2   B   0.555876315914289   0.444501133776853   0.625594254940380   1.0000000
B2   B   0.722171749166883   0.944457913269837   0.624864092364024   1.0000000
B2   B   0.888786860666559   0.444500529180521   0.624975291010905   1.0000000
B2   B   0.055393412476427   0.444472529910156   0.125122127113115   1.0000000
B2   B   0.222095991438426   0.944354098644840   0.125007492944763   1.0000000
B2   B   0.555520173431798   0.944519098640125   0.125091402475117   1.0000000
B2   B   0.388903099490254   0.444466626199402   0.124446125465219   1.0000000
B2   B   0.888817181367614   0.944383035107662   0.125067471262226   1.0000000
B2   B   0.722610224892378   0.444670546778069   0.125635479784329   1.0000000
B2   B   0.222049855921735   0.611102505088993   0.624965831478509   1.0000000
B2   B   0.055406128169719   0.111038265543255   0.625053086897545   1.0000000
B2   B   0.555682435817295   0.611085611120516   0.625261045717872   1.0000000
B2   B   0.388869072527680   0.111103700854853   0.625095737561191   1.0000000
B2   B   0.888808238402574   0.611040201646782   0.624978854256665   1.0000000
B2   B   0.055333214734413   0.611043881286275   0.125162983227603   1.0000000
B2   B   0.722222072430539   0.111274596967718   0.624869796254859   1.0000000
B2   B   0.222073703819710   0.110992806617755   0.124872955470699   1.0000000
B2   B   0.388820918213333   0.611126473789807   0.124945922645197   1.0000000
B2   B   0.722451579103528   0.611051510319943   0.124533696628699   1.0000000
B2   B   0.555613584290962   0.111300980111417   0.125008808383742   1.0000000
B2   B   0.388820918213332   0.611126473789807   0.625054077354803   1.0000000
B2   B   0.888800502642298   0.111146705022432   0.125076436600516   1.0000000
B2   B   0.222060933502532   0.777718056321766   0.624956033578337   1.0000000
B2   B   0.055413921528522   0.277796650037828   0.624993779573877   1.0000000
B2   B   0.388898721199390   0.277772044568856   0.625548307760122   1.0000000
B2   B   0.555540427536566   0.777767712049083   0.624956614599196   1.0000000
B2   B   0.888882473387850   0.777687482463751   0.624920271854891   1.0000000
B2   B   0.722405060437296   0.278119855372410   0.625304609701166   1.0000000
B2   B   0.055416584375686   0.777680173860862   0.125128910194653   1.0000000
B2   B   0.388796612628508   0.777781149083880   0.125023832481885   1.0000000
B2   B   0.222063492944284   0.277721867699954   0.124756602073479   1.0000000
B2   B   0.722266211784212   0.777715062772512   0.125060090814116   1.0000000
B2   B   0.555841421119153   0.278074955767087   0.124750878085659   1.0000000
B2   B   0.888848372543003   0.277919067136068   0.125093181131622   1.0000000
B2   B   0.055393412476427   0.444472529910156   0.624877872886886   1.0000000
B2   B   0.222095991438426   0.944354098644840   0.624992507055237   1.0000000
B2   B   0.555520173431798   0.944519098640125   0.624908597524883   1.0000000
B2   B   0.388903099490254   0.444466626199402   0.625553874534781   1.0000000
B2   B   0.888817181367614   0.944383035107662   0.624932528737774   1.0000000
B2   B   0.055435057524981   0.944341052473093   0.125028291989026   1.0000000
B2   B   0.722610224892378   0.444670546778069   0.624364520215670   1.0000000
B2   B   0.388815728734159   0.944447796776614   0.125023459330855   1.0000000
B2   B   0.222076378181369   0.444466136223298   0.124948615136295   1.0000000
B2   B   0.222049855921735   0.611102505088993   0.125034168521491   1.0000000
B2   B   0.555876315914289   0.444501133776853   0.124405745059621   1.0000000
B2   B   0.722171749166883   0.944457913269837   0.125135907635975   1.0000000
B2   B   0.888786860666559   0.444500529180521   0.125024708989096   1.0000000
B2   B   0.055333214734413   0.611043881286275   0.624837016772397   1.0000000
B2   B   0.222073703819710   0.110992806617755   0.625127044529300   1.0000000
B2   B   0.722451579103528   0.611051510319943   0.625466303371301   1.0000000
B2   B   0.555613584290962   0.111300980111417   0.624991191616258   1.0000000
B2   B   0.888800502642298   0.111146705022432   0.624923563399484   1.0000000


