data_1
_audit_creation_method   'vasp2cif'
_cell_length_a    17.52789999999977
_cell_length_b    17.52789999999977
_cell_length_c    15.0
_cell_angle_alpha    90.0
_cell_angle_beta    90.0
_cell_angle_gamma    119.99999999999916

_symmetry_space_group_name_H-M    'P 1'
loop_
_atom_site_label
_atom_site_type_symbol
_atom_site_fract_x
_atom_site_fract_y
_atom_site_fract_z
_atom_site_occupancy
B2   B   0.906038457490357   0.954433077934427   0.111100846655476   1.0000000
B2   B   0.906577748497592   0.097796310194514   0.111134483795944   1.0000000
B2   B   0.905753499332819   0.240067851788089   0.111229318959551   1.0000000
B2   B   0.903110072955919   0.381510931416549   0.111147721742046   1.0000000
B2   B   0.899664929783488   0.522661840061921   0.111312101291312   1.0000000
B2   B   0.900795082336168   0.664889598470738   0.111427368189099   1.0000000
B2   B   0.903574626174130   0.809438747598966   0.111180419609427   1.0000000
B2   B   0.046593405043527   0.950966491097705   0.111097469695839   1.0000000
B2   B   0.049331467269992   0.096282491934448   0.111131975028353   1.0000000
B2   B   0.050441864640167   0.240224686231475   0.111074662265434   1.0000000
B2   B   0.049557915003557   0.381680999757538   0.111048094316444   1.0000000
B2   B   0.046624279901323   0.522657022150272   0.110972259368159   1.0000000
B2   B   0.044885937735504   0.664164692723804   0.111009290963921   1.0000000
B2   B   0.044938791283385   0.806687036395601   0.110978530275741   1.0000000
B2   B   0.187693016081332   0.947835317642919   0.111376980895324   1.0000000
B2   B   0.189218446357284   0.092033929830083   0.111688578498134   1.0000000
B2   B   0.194488826835255   0.239392063095509   0.110950686896434   1.0000000
B2   B   0.196318947277983   0.382133732021537   0.110795402132485   1.0000000
B2   B   0.193757563904847   0.523161545599180   0.110924076924874   1.0000000
B2   B   0.189771350012647   0.664380709786546   0.110955581322038   1.0000000
B2   B   0.188373840083762   0.805983011993323   0.111005673700613   1.0000000
B2   B   0.331437730512208   0.948093102291237   0.111250811944495   1.0000000
B2   B   0.329970844165760   0.088079898951628   0.112848503663451   1.0000000
B2   B   0.332168986768001   0.230311868509474   0.111864797390901   1.0000000
B2   B   0.345414245180350   0.385430050791718   0.110099789882473   1.0000000
B2   B   0.343174373347235   0.524806839092856   0.110860864473321   1.0000000
B2   B   0.334777747692963   0.665463517703841   0.111012585586488   1.0000000
B2   B   0.332686424847540   0.806980862429083   0.110951150750783   1.0000000
B2   B   0.475619021804337   0.950994968861314   0.110985409591783   1.0000000
B2   B   0.474182323560534   0.091987774519074   0.111044565893698   1.0000000
B2   B   0.470926665971548   0.231586408998881   0.110367308414851   1.0000000
B2   B   0.478845127971614   0.667500885855400   0.110812872315458   1.0000000
B2   B   0.476922269291331   0.809413724765455   0.110951761771849   1.0000000
B2   B   0.619727565721071   0.954516347141368   0.110956271865646   1.0000000
B2   B   0.618629867609399   0.096350388314321   0.111090034736613   1.0000000
B2   B   0.616489230498348   0.238699942820573   0.110672797391516   1.0000000
B2   B   0.610234871433866   0.383040016637542   0.110297416968700   1.0000000
B2   B   0.602702745638411   0.529593873047548   0.111838804591207   1.0000000
B2   B   0.622072189212718   0.673775501655488   0.110960068437768   1.0000000
B2   B   0.620669901396011   0.813356828451103   0.110851780655124   1.0000000
B2   B   0.763434563171367   0.955540375952541   0.110978708003112   1.0000000
B2   B   0.762718711329384   0.097754331711834   0.111123590162277   1.0000000
B2   B   0.760921890875976   0.239745318382771   0.111244021547584   1.0000000
B2   B   0.756766156983945   0.381604969583102   0.110977784511802   1.0000000
B2   B   0.751634143770323   0.523343020409767   0.112367068148969   1.0000000
B2   B   0.759507675321217   0.667866080789665   0.111671035235676   1.0000000
B2   B   0.763470161805908   0.813108984788830   0.111067077667172   1.0000000
C2   C   0.498324034238330   0.530343238239883   0.110635426743002   1.0000000
N2   N   0.951956384384453   0.904971599592355   0.111074394213359   1.0000000
N2   N   0.954451202998437   0.050018347412335   0.111105951597407   1.0000000
N2   N   0.954949399734749   0.193189310121163   0.111162722078561   1.0000000
N2   N   0.953347983650295   0.335060726214706   0.111164404202361   1.0000000
N2   N   0.950038384686148   0.476242968060444   0.111066115272040   1.0000000
N2   N   0.948846851002628   0.617523583787760   0.111217653393669   1.0000000
N2   N   0.949641739114240   0.760225328282813   0.111105815447792   1.0000000
N2   N   0.093049853597622   0.902087963943608   0.111005305955822   1.0000000
N2   N   0.095016370846761   0.046727292802246   0.111206271668689   1.0000000
N2   N   0.099289458181739   0.192801472953391   0.111030976493726   1.0000000
N2   N   0.099961710172702   0.335272111422110   0.110978337151927   1.0000000
N2   N   0.097406651259556   0.476382912291043   0.110938805637830   1.0000000
N2   N   0.094053028672706   0.617409255626974   0.110928361847225   1.0000000
N2   N   0.092921568267891   0.759253724907958   0.110936798452346   1.0000000
N2   N   0.236064503135416   0.901194184020978   0.111191286549126   1.0000000
N2   N   0.235564453267809   0.043398275078023   0.112081768774058   1.0000000
N2   N   0.238468743260243   0.188142499521755   0.111526480582973   1.0000000
N2   N   0.247512685411356   0.336014112274763   0.110530041575855   1.0000000
N2   N   0.245820957026242   0.476708601694429   0.110836773386930   1.0000000
N2   N   0.239414109669734   0.617682657469386   0.110972450353113   1.0000000
N2   N   0.237137093674914   0.759303326337297   0.110950846024153   1.0000000
N2   N   0.380110180336348   0.902075645947909   0.110938790124327   1.0000000
N2   N   0.378902553037516   0.043075238277592   0.111667259223410   1.0000000
N2   N   0.376927560781494   0.182632964611280   0.113814099413063   1.0000000
N2   N   0.382508043931689   0.325893336071227   0.109534176709584   1.0000000
N2   N   0.399307156904941   0.479719259661709   0.110583765655733   1.0000000
N2   N   0.384323721204158   0.618739168039248   0.110962977116819   1.0000000
N2   N   0.381489636296633   0.760404699908016   0.110966401291109   1.0000000
N2   N   0.524193445092627   0.904731811149415   0.110951446359416   1.0000000
N2   N   0.523022857219352   0.046482000639939   0.110993314193858   1.0000000
N2   N   0.521108904519940   0.187565995046672   0.110517986226526   1.0000000
N2   N   0.516638418359844   0.324114005276650   0.101046939028450   1.0000000
N2   N   0.527688961442620   0.620856614863002   0.110572490571741   1.0000000
N2   N   0.525467327747432   0.762676838662412   0.110857430412993   1.0000000
N2   N   0.668101506954325   0.908057038258555   0.110882535512833   1.0000000
N2   N   0.667157310208396   0.049767134742915   0.111035719409123   1.0000000
N2   N   0.665271917854540   0.191964964510612   0.111206977747169   1.0000000
N2   N   0.660027030955434   0.334398067446449   0.110676323682532   1.0000000
N2   N   0.651153938080802   0.477547615346483   0.112685394462526   1.0000000
N2   N   0.664069585536757   0.622473712564002   0.111559840465879   1.0000000
N2   N   0.668774993224080   0.767166223938605   0.110871033007045   1.0000000
N2   N   0.811172387521454   0.907982691889944   0.111017239721303   1.0000000
N2   N   0.811268994766710   0.050740490208969   0.111059356541457   1.0000000
N2   N   0.810037007983836   0.192973984643901   0.111237197060641   1.0000000
N2   N   0.806770281511037   0.334876013664764   0.111103151798950   1.0000000
N2   N   0.802161428960359   0.476401087935064   0.111598043541139   1.0000000
N2   N   0.804440029599773   0.618226950360604   0.111978348892674   1.0000000
N2   N   0.808539638800703   0.763108582854596   0.111268811403454   1.0000000


