data_1
_audit_creation_method   'vasp2cif'
_cell_length_a    17.52789999999977
_cell_length_b    17.52789999999977
_cell_length_c    15.0
_cell_angle_alpha    90.0
_cell_angle_beta    90.0
_cell_angle_gamma    119.99999999999916

_symmetry_space_group_name_H-M    'P 1'
loop_
_atom_site_label
_atom_site_type_symbol
_atom_site_fract_x
_atom_site_fract_y
_atom_site_fract_z
_atom_site_occupancy
B2   B   0.904640968173419   0.952261199000875   0.111028690579743   1.0000000
B2   B   0.904784995784701   0.095216750907299   0.111050183667369   1.0000000
B2   B   0.904811603414371   0.238128297999791   0.111054165786074   1.0000000
B2   B   0.904777462629431   0.380995788146255   0.111016735622445   1.0000000
B2   B   0.904634135992563   0.523795152504545   0.111011870246774   1.0000000
B2   B   0.904904238222011   0.666699472070163   0.111053358957883   1.0000000
B2   B   0.904902181025175   0.809646761471205   0.111052859348137   1.0000000
B2   B   0.047602272214839   0.952399451150156   0.111022439678663   1.0000000
B2   B   0.047740516341127   0.095360752298588   0.111028690106742   1.0000000
B2   B   0.047846703064426   0.238237444383993   0.111020036054456   1.0000000
B2   B   0.047832192756256   0.381028309909991   0.111031425544190   1.0000000
B2   B   0.047738355570651   0.523802063597731   0.111021147660117   1.0000000
B2   B   0.047613874830181   0.666652749314548   0.111030538067017   1.0000000
B2   B   0.047634442069525   0.809544056577363   0.111013724655471   1.0000000
B2   B   0.190457693115636   0.952367321023478   0.111013723129474   1.0000000
B2   B   0.190354939564794   0.095099531682831   0.111052855224132   1.0000000
B2   B   0.190998569316263   0.238475458293610   0.111023862341232   1.0000000
B2   B   0.190996821744536   0.381208228413465   0.111014036707332   1.0000000
B2   B   0.190992174837255   0.523951082943272   0.111050769982169   1.0000000
B2   B   0.190358524136039   0.666698240117589   0.111065824327148   1.0000000
B2   B   0.190466341335173   0.809535353205825   0.111016059157545   1.0000000
B2   B   0.333348986390451   0.952387849003822   0.111030540481015   1.0000000
B2   B   0.333302241906836   0.095097501697991   0.111053354580883   1.0000000
B2   B   0.332968443148142   0.237353784311504   0.111050632517982   1.0000000
B2   B   0.334447992212983   0.380782541132420   0.111020197244561   1.0000000
B2   B   0.334450857891111   0.525068307617627   0.111044756937264   1.0000000
B2   B   0.332964964250301   0.667036738523700   0.111067108159245   1.0000000
B2   B   0.333303413202409   0.809643104706956   0.111065827860151   1.0000000
B2   B   0.476199623821270   0.952263225359353   0.111021152971118   1.0000000
B2   B   0.476206589001452   0.095367686683434   0.111011878939774   1.0000000
B2   B   0.476046885501757   0.238476809582202   0.111052403881897   1.0000000
B2   B   0.474923077823493   0.380796603757289   0.111046782361789   1.0000000
B2   B   0.474933476815369   0.665550999448891   0.111044757451270   1.0000000
B2   B   0.476050632846727   0.809009512230745   0.111050775719170   1.0000000
B2   B   0.618973429062012   0.952169491660744   0.111031427651191   1.0000000
B2   B   0.619005882201743   0.095224224652570   0.111016736708446   1.0000000
B2   B   0.618976910866442   0.238235917729092   0.111024101439641   1.0000000
B2   B   0.618789879097784   0.381211855111216   0.111025484503424   1.0000000
B2   B   0.619204965212710   0.525078589379509   0.111046777103787   1.0000000
B2   B   0.619219108322574   0.665553731503014   0.111020196957558   1.0000000
B2   B   0.618793514746534   0.809004947658464   0.111014032359330   1.0000000
B2   B   0.761764296144006   0.952155016462573   0.111020038280451   1.0000000
B2   B   0.761873397761209   0.095190073119627   0.111054168189073   1.0000000
B2   B   0.761871899121465   0.238129806058532   0.111063668586739   1.0000000
B2   B   0.761765904654908   0.381024844564558   0.111024093032642   1.0000000
B2   B   0.761524942593795   0.523954797305246   0.111052395917900   1.0000000
B2   B   0.762647874459494   0.667033237396855   0.111050641145982   1.0000000
B2   B   0.761526213130392   0.809003147365737   0.111023864815228   1.0000000
C2   C   0.476202945699624   0.523798709847372   0.111033217935868   1.0000000
N2   N   0.952287019114628   0.904724249835621   0.111009504860184   1.0000000
N2   N   0.952403548479944   0.047598168830055   0.111008964924018   1.0000000
N2   N   0.952590047112214   0.190583589877112   0.111017446991660   1.0000000
N2   N   0.952582158177881   0.333439449753271   0.111011253207487   1.0000000
N2   N   0.952398999684583   0.476229716946971   0.110975502471505   1.0000000
N2   N   0.952284265383017   0.618993784437389   0.111007944776480   1.0000000
N2   N   0.952227618061259   0.761834648693849   0.111018896855814   1.0000000
N2   N   0.095208875602545   0.904792876865457   0.110984537434153   1.0000000
N2   N   0.095277455602381   0.047714699700372   0.111009511357180   1.0000000
N2   N   0.095828002555774   0.190953756891590   0.111000525731798   1.0000000
N2   N   0.095970121325066   0.333697390832070   0.110991811983750   1.0000000
N2   N   0.095822837663392   0.476294577282015   0.111005599743446   1.0000000
N2   N   0.095277001474690   0.618994860293959   0.111016771410454   1.0000000
N2   N   0.095213331696442   0.761866572121802   0.110990817327092   1.0000000
N2   N   0.238135140039200   0.904788379061557   0.110990818219093   1.0000000
N2   N   0.238167080683156   0.047774150902738   0.111018889432817   1.0000000
N2   N   0.238289018263671   0.190674778511359   0.111018139071394   1.0000000
N2   N   0.239823321719847   0.334666211983753   0.110974677930798   1.0000000
N2   N   0.239822941856608   0.476578423334425   0.110996072871016   1.0000000
N2   N   0.238283095581920   0.619042217691811   0.111032585148189   1.0000000
N2   N   0.238169099736730   0.761832534458265   0.111022617912040   1.0000000
N2   N   0.381006810809041   0.904724624308310   0.111016775560457   1.0000000
N2   N   0.381007942749609   0.047717485536982   0.111007952524480   1.0000000
N2   N   0.380961384242644   0.190672347017518   0.111020991053143   1.0000000
N2   N   0.381002817556392   0.333425774941039   0.110989207246109   1.0000000
N2   N   0.386140501244502   0.478769403401018   0.110989101848829   1.0000000
N2   N   0.381007060445283   0.618994737513718   0.111000660977091   1.0000000
N2   N   0.380959520797186   0.761718611298079   0.111032589769189   1.0000000
N2   N   0.523707154945985   0.904178757852604   0.111005613521445   1.0000000
N2   N   0.523771941402028   0.047602662075420   0.110975502916511   1.0000000
N2   N   0.523708686403625   0.190965482605296   0.111003273263693   1.0000000
N2   N   0.523419513328062   0.334670356613686   0.111003385525543   1.0000000
N2   N   0.521227382254651   0.478774214370353   0.110996278885937   1.0000000
N2   N   0.521232255881982   0.613861180894499   0.110989103426831   1.0000000
N2   N   0.523423359278579   0.760178914471390   0.110996070055014   1.0000000
N2   N   0.666304399779927   0.904031626147934   0.110991809770750   1.0000000
N2   N   0.666562219977728   0.047419496071124   0.111011251739491   1.0000000
N2   N   0.666562590860134   0.190584998360866   0.111018826988026   1.0000000
N2   N   0.666302138710985   0.333699671838016   0.110989575257097   1.0000000
N2   N   0.665331307518314   0.476582202681935   0.111003365126543   1.0000000
N2   N   0.666575855702961   0.618998876988606   0.110989209881107   1.0000000
N2   N   0.665335454470244   0.760178435748151   0.110974670799798   1.0000000
N2   N   0.809047955624413   0.904173712478229   0.111000526107803   1.0000000
N2   N   0.809418135399890   0.047411661960783   0.111017456678660   1.0000000
N2   N   0.809519736438620   0.190481918253379   0.111038670264298   1.0000000
N2   N   0.809416739747131   0.333439094300868   0.111018821048031   1.0000000
N2   N   0.809036408949706   0.476293068046380   0.111003252752690   1.0000000
N2   N   0.809329374349481   0.619040319804357   0.111021006406145   1.0000000
N2   N   0.809326883582641   0.761712673520329   0.111018150367389   1.0000000


