data_1
_audit_creation_method   'vasp2cif'
_cell_length_a    17.52789999999977
_cell_length_b    17.52789999999977
_cell_length_c    15.0
_cell_angle_alpha    90.0
_cell_angle_beta    90.0
_cell_angle_gamma    119.99999999999916

_symmetry_space_group_name_H-M    'P 1'
loop_
_atom_site_label
_atom_site_type_symbol
_atom_site_fract_x
_atom_site_fract_y
_atom_site_fract_z
_atom_site_occupancy
B2   B   0.905028340692740   0.952458535090960   0.110999602861147   1.0000000
B2   B   0.904845990940106   0.095156030255890   0.111044693093793   1.0000000
B2   B   0.904784556982985   0.237982120793676   0.111041144757045   1.0000000
B2   B   0.905120711589576   0.380972522631480   0.111007940301667   1.0000000
B2   B   0.905442767929885   0.524013616840400   0.111016774720837   1.0000000
B2   B   0.904883340879550   0.666774814447470   0.111059235858971   1.0000000
B2   B   0.904387330865497   0.809068283786647   0.111037382940716   1.0000000
B2   B   0.047640782107069   0.952361239088935   0.111000935114018   1.0000000
B2   B   0.047543486105044   0.094973680503257   0.110999602861147   1.0000000
B2   B   0.047321108068767   0.237831967813143   0.111003118077390   1.0000000
B2   B   0.047190406207296   0.380945111355740   0.111019711008745   1.0000000
B2   B   0.047276850286152   0.524105074845273   0.111005331596735   1.0000000
B2   B   0.047500485792763   0.666987822931466   0.111029730117678   1.0000000
B2   B   0.047548931903157   0.809653444253768   0.110995088811217   1.0000000
B2   B   0.190348576942235   0.952453089292847   0.110995088811217   1.0000000
B2   B   0.190933737409357   0.095614690330499   0.111037382940716   1.0000000
B2   B   0.189775991973965   0.237391543209857   0.111005631975525   1.0000000
B2   B   0.189286333260309   0.380799229212895   0.111007802371706   1.0000000
B2   B   0.188934045444893   0.524295200820026   0.111042043129894   1.0000000
B2   B   0.189835052864913   0.667198038747843   0.111052277369807   1.0000000
B2   B   0.190188287372530   0.809813733823474   0.110995434601663   1.0000000
B2   B   0.333014198265532   0.952501535403241   0.111029730117678   1.0000000
B2   B   0.333227206749529   0.095118680316447   0.111059235858971   1.0000000
B2   B   0.334660824143038   0.239005967287481   0.111057214976563   1.0000000
B2   B   0.330704391632340   0.379560839335489   0.111013076191349   1.0000000
B2   B   0.329980977393502   0.525261995688704   0.111024481265001   1.0000000
B2   B   0.332168528830875   0.667833492366124   0.111049571729417   1.0000000
B2   B   0.332803982449156   0.810166968331091   0.111052277369807   1.0000000
B2   B   0.475896946351726   0.952725170909852   0.111005331596735   1.0000000
B2   B   0.475988404356598   0.094559253266111   0.111016774720837   1.0000000
B2   B   0.476352123085411   0.236199750947205   0.111043007637504   1.0000000
B2   B   0.479636929500265   0.377935371345295   0.111113090848928   1.0000000
B2   B   0.474740025508294   0.670021043803496   0.111024481265001   1.0000000
B2   B   0.475706820376972   0.811067975751111   0.111042043129894   1.0000000
B2   B   0.619056909840263   0.952811614988707   0.111019711008745   1.0000000
B2   B   0.619029498564524   0.094881309606421   0.111007940301667   1.0000000
B2   B   0.619437774206290   0.236918775520454   0.111011031141348   1.0000000
B2   B   0.621073178377357   0.378928842818647   0.111010662799973   1.0000000
B2   B   0.622066649850708   0.520365091696733   0.111113090848928   1.0000000
B2   B   0.620441181860515   0.669297629564658   0.111013076191349   1.0000000
B2   B   0.619202791983108   0.810715687935695   0.111007802371706   1.0000000
B2   B   0.762170053382860   0.952680913127236   0.111003118077390   1.0000000
B2   B   0.762019900402328   0.095217464213012   0.111041144757045   1.0000000
B2   B   0.762214085144371   0.237787936051634   0.111049969001455   1.0000000
B2   B   0.763083245675550   0.380564246989713   0.111011031141348   1.0000000
B2   B   0.763802270248799   0.523649898111587   0.111043007637504   1.0000000
B2   B   0.760996053908523   0.665341197053959   0.111057214976563   1.0000000
B2   B   0.762610477986147   0.810226029222038   0.111005631975525   1.0000000
N2   N   0.952096581748019   0.904357305209321   0.110998278517810   1.0000000
N2   N   0.952486458612765   0.047514943305241   0.110999555097945   1.0000000
N2   N   0.952386413355210   0.190356644501752   0.111022636151243   1.0000000
N2   N   0.952333213324308   0.333226086922655   0.111008572472810   1.0000000
N2   N   0.952348942442664   0.476201351929457   0.110975619520834   1.0000000
N2   N   0.952139387274129   0.619097478752916   0.111023713965853   1.0000000
N2   N   0.951988627053295   0.761687812581759   0.111024811419789   1.0000000
N2   N   0.095156616089123   0.904844785828875   0.110967155603251   1.0000000
N2   N   0.095644096708678   0.047904820169986   0.110998278517810   1.0000000
N2   N   0.095141851963789   0.190245180882574   0.110975218371258   1.0000000
N2   N   0.094806223630442   0.333181357607553   0.110994093591448   1.0000000
N2   N   0.094416666445523   0.476216044336924   0.111009973783160   1.0000000
N2   N   0.094804885630312   0.619266262420950   0.111014213871465   1.0000000
N2   N   0.094982370436077   0.762074208973494   0.110982068596336   1.0000000
N2   N   0.237927192944511   0.905019031481922   0.110982068596336   1.0000000
N2   N   0.238313589336246   0.048012774864711   0.111024811419789   1.0000000
N2   N   0.239508636194607   0.191793532946130   0.111019348615509   1.0000000
N2   N   0.237060228362342   0.332640384961232   0.110983287510462   1.0000000
N2   N   0.236188129961318   0.476298235235559   0.111013001770602   1.0000000
N2   N   0.237289034906635   0.619468255366568   0.111045233243671   1.0000000
N2   N   0.237720331097143   0.762281070820862   0.111020344399001   1.0000000
N2   N   0.380735139497049   0.905196516287686   0.111014213871465   1.0000000
N2   N   0.380903923165083   0.047862014643877   0.111023713965853   1.0000000
N2   N   0.381642095614263   0.191190314200143   0.111057069694990   1.0000000
N2   N   0.384925168738933   0.337456485733772   0.111039129309786   1.0000000
N2   N   0.374467388955250   0.474509393624605   0.110995805484961   1.0000000
N2   N   0.379939941926664   0.620061459991335   0.111017647256583   1.0000000
N2   N   0.380533146551430   0.762712367011370   0.111045233243671   1.0000000
N2   N   0.523785357580073   0.905584735472476   0.111009973783160   1.0000000
N2   N   0.523800049987540   0.047652459475341   0.110975619520834   1.0000000
N2   N   0.524154651183099   0.189856985552264   0.111009669497606   1.0000000
N2   N   0.525822011115607   0.332345675296809   0.111012129068044   1.0000000
N2   N   0.525492008292391   0.625534012962749   0.110995805484961   1.0000000
N2   N   0.523703166681439   0.763813271956687   0.111013001770602   1.0000000
N2   N   0.666820044309444   0.905195178287556   0.110994093591448   1.0000000
N2   N   0.666775314994342   0.047668188593698   0.111008572472810   1.0000000
N2   N   0.666920567960659   0.190024586993074   0.111012494428365   1.0000000
N2   N   0.667704986708244   0.332296415208753   0.110986398079376   1.0000000
N2   N   0.667655726620188   0.474179390801390   0.111012129068044   1.0000000
N2   N   0.662544916183224   0.615076233179065   0.111039129309786   1.0000000
N2   N   0.667361016955764   0.762941173555664   0.110983287510462   1.0000000
N2   N   0.809756221035425   0.904859549954209   0.110975218371258   1.0000000
N2   N   0.809644757416247   0.047614988562796   0.111022636151243   1.0000000
N2   N   0.809653086344353   0.190348315573645   0.111034395435489   1.0000000
N2   N   0.809976814924925   0.333080833956338   0.111012494428365   1.0000000
N2   N   0.810144416365734   0.475846750733898   0.111009669497606   1.0000000
N2   N   0.808811087717856   0.618359306303736   0.111057069694990   1.0000000
N2   N   0.808207868971869   0.760492765723400   0.111019348615509   1.0000000
P2   P   0.481750468110428   0.518251553086570   0.111165217774482   1.0000000


