data_1
_audit_creation_method   'vasp2cif'
_cell_length_a    17.52789999999977
_cell_length_b    17.52789999999977
_cell_length_c    15.0
_cell_angle_alpha    90.0
_cell_angle_beta    90.0
_cell_angle_gamma    119.99999999999916

_symmetry_space_group_name_H-M    'P 1'
loop_
_atom_site_label
_atom_site_type_symbol
_atom_site_fract_x
_atom_site_fract_y
_atom_site_fract_z
_atom_site_occupancy
B2   B   0.904548859119743   0.951828415525089   0.106092676649689   1.0000000
B2   B   0.904742527227011   0.094794560849099   0.105671805191841   1.0000000
B2   B   0.904852683467223   0.237804958392179   0.105605609329986   1.0000000
B2   B   0.904937332783940   0.380818344965050   0.106059055237902   1.0000000
B2   B   0.904713035236307   0.523714172489948   0.106549811143816   1.0000000
B2   B   0.904482129194565   0.666420887484738   0.106092348300337   1.0000000
B2   B   0.904088296662194   0.808749337351345   0.106372049941727   1.0000000
B2   B   0.047846525506714   0.952598639301085   0.106944225628701   1.0000000
B2   B   0.047849549163316   0.095229557769858   0.107515331668609   1.0000000
B2   B   0.047756673981835   0.237914640697038   0.107542503893028   1.0000000
B2   B   0.047739368831940   0.380841281293388   0.106934927913138   1.0000000
B2   B   0.047739248244495   0.523812722846767   0.106458351696399   1.0000000
B2   B   0.047683300471053   0.666777507707996   0.106374797809638   1.0000000
B2   B   0.047691086513998   0.809716241183902   0.106449918111807   1.0000000
B2   B   0.191000153003836   0.953196977535215   0.106983350230428   1.0000000
B2   B   0.191647251903473   0.096602266125164   0.109483034791726   1.0000000
B2   B   0.190938363952812   0.238480152785981   0.110767230380071   1.0000000
B2   B   0.190532103240605   0.380868225253176   0.110345441532634   1.0000000
B2   B   0.190704919401306   0.523769578042239   0.108049529465256   1.0000000
B2   B   0.190646090300083   0.666802496484503   0.106081438081410   1.0000000
B2   B   0.190723386377425   0.809951778560980   0.105699397471305   1.0000000
B2   B   0.333784464322291   0.953152144574205   0.105754959640798   1.0000000
B2   B   0.334322473920930   0.096826571742343   0.110960795747046   1.0000000
B2   B   0.335889802862221   0.241282050021071   0.115167030500975   1.0000000
B2   B   0.333226170787942   0.381169965572198   0.117048994145783   1.0000000
B2   B   0.333591988477492   0.523600453292633   0.115436158731813   1.0000000
B2   B   0.333501662303364   0.666529441979014   0.109587210461276   1.0000000
B2   B   0.333544463952709   0.809734906614091   0.105063598032385   1.0000000
B2   B   0.476377492888868   0.952540087115678   0.104267561715997   1.0000000
B2   B   0.476683230723926   0.096277410524551   0.108236022206892   1.0000000
B2   B   0.477354401331227   0.240483276585651   0.118651322358124   1.0000000
B2   B   0.480683159110603   0.388040103475846   0.132276730988420   1.0000000
B2   B   0.473992494363875   0.521964049962108   0.143243024916323   1.0000000
B2   B   0.476130700901977   0.665425711221726   0.118095252458261   1.0000000
B2   B   0.476222007231616   0.808916440167964   0.107016965758873   1.0000000
B2   B   0.618962918256750   0.951833753404332   0.104709771339816   1.0000000
B2   B   0.619149864916931   0.095102102264920   0.105033703142197   1.0000000
B2   B   0.619384886636411   0.238143736373906   0.110081022280649   1.0000000
B2   B   0.619709920095754   0.380612290640384   0.115526679767416   1.0000000
B2   B   0.615684298976640   0.519953954040440   0.109054392580029   1.0000000
B2   B   0.618039816759075   0.665145695164666   0.116122728449937   1.0000000
B2   B   0.618744978896580   0.808558347513262   0.109377494785783   1.0000000
B2   B   0.761676382604063   0.951625449459116   0.105532481786462   1.0000000
B2   B   0.761869395988373   0.094765194782292   0.104584666465624   1.0000000
B2   B   0.762036627348840   0.237835964070226   0.105685849893904   1.0000000
B2   B   0.762189807425526   0.380785014594846   0.107616036566673   1.0000000
B2   B   0.761519074804389   0.523493889564074   0.107070793355169   1.0000000
B2   B   0.760093907346959   0.664676607923399   0.106588966684410   1.0000000
B2   B   0.761192165911751   0.808376408744612   0.107242461552764   1.0000000
N2   N   0.952185787275224   0.904256362999265   0.106436288826494   1.0000000
N2   N   0.952402091624704   0.047195428083608   0.106248567236598   1.0000000
N2   N   0.952442478052062   0.190132739024618   0.106081805579412   1.0000000
N2   N   0.952494284310509   0.333145373962862   0.106033989443008   1.0000000
N2   N   0.952423005403718   0.476139043598294   0.106409525976740   1.0000000
N2   N   0.952258978891170   0.618983483582504   0.106472295290303   1.0000000
N2   N   0.952151446176163   0.761631479867359   0.106328781529586   1.0000000
N2   N   0.095542270385143   0.905091155920601   0.106701884257808   1.0000000
N2   N   0.095935842774205   0.048122959156489   0.107830948924630   1.0000000
N2   N   0.095547727310033   0.190488352946813   0.108464494873388   1.0000000
N2   N   0.095324201486032   0.333221265438868   0.108069593358076   1.0000000
N2   N   0.095412745775986   0.476162928363419   0.106836896136203   1.0000000
N2   N   0.095333434012235   0.619130777080507   0.106270392938463   1.0000000
N2   N   0.095343691991792   0.762107636014390   0.106304040186933   1.0000000
N2   N   0.238456068310396   0.905349842045691   0.105856406809445   1.0000000
N2   N   0.238945904877390   0.048698734461411   0.108815264099107   1.0000000
N2   N   0.239880069643765   0.192298787646478   0.111640049578971   1.0000000
N2   N   0.238213978367424   0.333508115583597   0.112298015704832   1.0000000
N2   N   0.238433754501130   0.476128685678770   0.110370352892772   1.0000000
N2   N   0.238281681288344   0.619046080520727   0.107318346138710   1.0000000
N2   N   0.238257892510333   0.762130736329000   0.105315567441867   1.0000000
N2   N   0.381142686456752   0.905096696637964   0.104319451469141   1.0000000
N2   N   0.381472665644434   0.048618877539127   0.108023794057445   1.0000000
N2   N   0.382229799300823   0.192394755540515   0.116192314214366   1.0000000
N2   N   0.384223760814418   0.337647530267513   0.117749938176171   1.0000000
N2   N   0.380973660164900   0.475634695071926   0.121739447729673   1.0000000
N2   N   0.381040615471095   0.618701271534539   0.115529352736651   1.0000000
N2   N   0.381023872947286   0.761742827890567   0.106679824386864   1.0000000
N2   N   0.523742688038847   0.904336232676415   0.104449774207133   1.0000000
N2   N   0.523947645563575   0.047989931111229   0.105049108510877   1.0000000
N2   N   0.524328658852072   0.191784946139988   0.112282339830450   1.0000000
N2   N   0.525750800340952   0.336406829698133   0.125554773661387   1.0000000
N2   N   0.523756732690488   0.617107258205960   0.127506588256170   1.0000000
N2   N   0.523600332686683   0.760698218595627   0.110866972444766   1.0000000
N2   N   0.666383374109111   0.903870914751490   0.105998987492331   1.0000000
N2   N   0.666599939733803   0.047173979849224   0.104127299187528   1.0000000
N2   N   0.666815546349978   0.190345834561146   0.106389829548472   1.0000000
N2   N   0.667164824032838   0.333277278261002   0.110816498794431   1.0000000
N2   N   0.665683453591655   0.475537613575196   0.109223151023596   1.0000000
N2   N   0.663401242087990   0.615372659076879   0.108506478431393   1.0000000
N2   N   0.665890706493341   0.760345792632344   0.110413010767950   1.0000000
N2   N   0.809114497979295   0.903771674730682   0.105889143917822   1.0000000
N2   N   0.809406041141209   0.046984209854795   0.104926873357118   1.0000000
N2   N   0.809574004349630   0.190105433720086   0.104942086080580   1.0000000
N2   N   0.809728169584578   0.333168366691381   0.106064523820423   1.0000000
N2   N   0.809323423663702   0.476056953061639   0.106967784601536   1.0000000
N2   N   0.808797451689822   0.618378194432562   0.105739583964765   1.0000000
N2   N   0.808278101634580   0.760251287561293   0.106600440601880   1.0000000
Sb2   Sb   0.513000392182966   0.476769870288910   0.278201610725416   1.0000000


