data_1
_audit_creation_method   'vasp2cif'
_cell_length_a    17.52789999999977
_cell_length_b    17.52789999999977
_cell_length_c    15.0
_cell_angle_alpha    90.0
_cell_angle_beta    90.0
_cell_angle_gamma    119.99999999999916

_symmetry_space_group_name_H-M    'P 1'
loop_
_atom_site_label
_atom_site_type_symbol
_atom_site_fract_x
_atom_site_fract_y
_atom_site_fract_z
_atom_site_occupancy
B2   B   0.905497690013046   0.953572694534633   0.110989787655858   1.0000000
B2   B   0.905814360499619   0.096637920546373   0.111066794724459   1.0000000
B2   B   0.905475071562895   0.239126419455619   0.111103079085053   1.0000000
B2   B   0.904244536350164   0.381248041029704   0.110974247301555   1.0000000
B2   B   0.902162446857550   0.523264647660172   0.111012140329382   1.0000000
B2   B   0.902802981997808   0.665781461720138   0.111074761094256   1.0000000
B2   B   0.904315673383953   0.809645878740943   0.111015882839781   1.0000000
B2   B   0.047133614026100   0.951789640741370   0.110982743813840   1.0000000
B2   B   0.048819316889595   0.096219721925782   0.111006259190748   1.0000000
B2   B   0.049556119221623   0.239213310182929   0.111072323699825   1.0000000
B2   B   0.049109531033955   0.381323824211172   0.111013961833037   1.0000000
B2   B   0.047344214819299   0.523175760575884   0.110982830770988   1.0000000
B2   B   0.046230647610277   0.665395844114469   0.110993157465908   1.0000000
B2   B   0.046270866599250   0.808139207474938   0.110975710654488   1.0000000
B2   B   0.188968553568497   0.950108413910191   0.111068670277072   1.0000000
B2   B   0.189855564019680   0.093659879548151   0.111163833650473   1.0000000
B2   B   0.193391663034578   0.239241230473776   0.111061199804721   1.0000000
B2   B   0.194350352600664   0.381559067837537   0.111050271160475   1.0000000
B2   B   0.192733667190165   0.523455504841208   0.111014238264670   1.0000000
B2   B   0.189908285236462   0.665485197510024   0.111037456311225   1.0000000
B2   B   0.189231830304442   0.807676453595495   0.111000301106620   1.0000000
B2   B   0.331996632412956   0.949861011757832   0.111059517061662   1.0000000
B2   B   0.331263222753856   0.091211717985072   0.111318294730476   1.0000000
B2   B   0.333305292586429   0.234827972666393   0.110998123777981   1.0000000
B2   B   0.341656308788123   0.382108647104487   0.110855863701516   1.0000000
B2   B   0.339128520205779   0.525373915044414   0.111024919850070   1.0000000
B2   B   0.333419138858065   0.666534017100320   0.111055930218207   1.0000000
B2   B   0.332653390488207   0.808280659192288   0.111036289825954   1.0000000
B2   B   0.475596140397770   0.951382750343368   0.111018391615466   1.0000000
B2   B   0.474788027161710   0.092773479401726   0.111043282299298   1.0000000
B2   B   0.472923199540995   0.233365697404014   0.111073311329416   1.0000000
B2   B   0.476219744103616   0.667861977349325   0.111012863667462   1.0000000
B2   B   0.476194435975028   0.809648306069907   0.111037142027175   1.0000000
B2   B   0.619172400753978   0.953358246594952   0.111002745425179   1.0000000
B2   B   0.618500186638502   0.095407064373006   0.110993447958943   1.0000000
B2   B   0.617296857741368   0.237713309513024   0.110903806007413   1.0000000
B2   B   0.613854072099643   0.379952649198679   0.110929913523204   1.0000000
B2   B   0.612021616563406   0.527712719153639   0.111209263664503   1.0000000
B2   B   0.620623026416680   0.670391073857174   0.111060229962539   1.0000000
B2   B   0.619578044234152   0.811557464953399   0.110990962704281   1.0000000
B2   B   0.762641531502769   0.954002074439686   0.111006942757583   1.0000000
B2   B   0.762253860082058   0.096443767387469   0.111079319893115   1.0000000
B2   B   0.761447605019758   0.238888540956413   0.111024117423007   1.0000000
B2   B   0.759597058276104   0.381170267699870   0.110958883951055   1.0000000
B2   B   0.756205621394913   0.523447533548136   0.111242269853741   1.0000000
B2   B   0.761107287454366   0.667526130987028   0.111172494754861   1.0000000
B2   B   0.762720196556922   0.811351720562915   0.111016480821042   1.0000000
C2   C   0.487117870855126   0.529684342484592   0.111011061738374   1.0000000
N2   N   0.951850490221857   0.904643512572151   0.110956356690262   1.0000000
N2   N   0.953284671789434   0.048770238401626   0.110992610265369   1.0000000
N2   N   0.953774390252155   0.191928182492088   0.111084363048931   1.0000000
N2   N   0.953164184047868   0.334367983735073   0.111008257960108   1.0000000
N2   N   0.951140058756175   0.476294472687659   0.110948362869777   1.0000000
N2   N   0.950263129113258   0.618147917591900   0.111005753244018   1.0000000
N2   N   0.950614068533149   0.760791272986462   0.110996000380262   1.0000000
N2   N   0.093837773222737   0.903171062241668   0.110966316486571   1.0000000
N2   N   0.094941438596082   0.047041399224120   0.111003001654025   1.0000000
N2   N   0.097531634213983   0.191916082110674   0.111015017154462   1.0000000
N2   N   0.098395071667094   0.334712060288935   0.111042848080570   1.0000000
N2   N   0.096886601989844   0.476434744498167   0.110975535102744   1.0000000
N2   N   0.094535084317995   0.618130861427003   0.110995101143099   1.0000000
N2   N   0.093818945565369   0.760346612660408   0.110966887058819   1.0000000
N2   N   0.236842221064309   0.902643247873572   0.111006075651234   1.0000000
N2   N   0.236577295234420   0.045060638530733   0.111199603957950   1.0000000
N2   N   0.238117644224507   0.188962987226011   0.111143306266070   1.0000000
N2   N   0.244125544161042   0.335909050618082   0.111028115779554   1.0000000
N2   N   0.243638986972945   0.477155930195214   0.111005311075699   1.0000000
N2   N   0.238811513265598   0.618405698880431   0.111031486458078   1.0000000
N2   N   0.237443843700564   0.760411436211767   0.111017916643835   1.0000000
N2   N   0.380340703863160   0.903137820574818   0.110997228509846   1.0000000
N2   N   0.379744150711155   0.044888886493925   0.111147164495205   1.0000000
N2   N   0.379338208358913   0.185944667582181   0.111336655882859   1.0000000
N2   N   0.377546301514566   0.327379241683731   0.110414383520072   1.0000000
N2   N   0.396464700098430   0.481676823472183   0.110992908289263   1.0000000
N2   N   0.382745810750867   0.619332065156822   0.111016266594264   1.0000000
N2   N   0.381103005029361   0.761153738232044   0.111033521727292   1.0000000
N2   N   0.523832679765779   0.904441130071313   0.111004194434884   1.0000000
N2   N   0.523251066097595   0.046499284058307   0.110981263736381   1.0000000
N2   N   0.522098329201167   0.188179592889345   0.110969647124250   1.0000000
N2   N   0.517643355747888   0.329572925325373   0.110272639861479   1.0000000
N2   N   0.523951312082429   0.618171658514581   0.111020225516064   1.0000000
N2   N   0.524353031674807   0.762020729981194   0.110991303481696   1.0000000
N2   N   0.667057992195876   0.905936781530896   0.110975285183325   1.0000000
N2   N   0.666719288221705   0.048456609398430   0.111003538550801   1.0000000
N2   N   0.665743352657043   0.191170398857169   0.110958439852235   1.0000000
N2   N   0.663513324613409   0.334208170754108   0.110839357975447   1.0000000
N2   N   0.656103161285049   0.475831689579707   0.111299418179963   1.0000000
N2   N   0.664246423912919   0.620082969329549   0.111145925813038   1.0000000
N2   N   0.666803102367098   0.763493113594469   0.110990949780508   1.0000000
N2   N   0.809928880757770   0.905937591296973   0.110973556334245   1.0000000
N2   N   0.810173706230830   0.048987068907641   0.111048870042016   1.0000000
N2   N   0.809709567427678   0.191742112534991   0.111081782501801   1.0000000
N2   N   0.808261146981051   0.334250904593419   0.110949911753476   1.0000000
N2   N   0.805027822615615   0.476285027684520   0.111061903838167   1.0000000
N2   N   0.806167361146907   0.618229497381067   0.111183932347119   1.0000000
N2   N   0.808526837067664   0.762120529064852   0.111048417229913   1.0000000


