data_1
_audit_creation_method   'vasp2cif'
_cell_length_a    14.93631414619966
_cell_length_b    14.936314146199727
_cell_length_c    13.341276283792837
_cell_angle_alpha    90.0
_cell_angle_beta    90.0
_cell_angle_gamma    119.99999999999984

_symmetry_space_group_name_H-M    'P 1'
loop_
_atom_site_label
_atom_site_type_symbol
_atom_site_fract_x
_atom_site_fract_y
_atom_site_fract_z
_atom_site_occupancy
O2   O   0.422206638713226   0.377769986023277   0.375000000000000   1.0000000
O2   O   0.582588149797382   0.457960741565355   0.375000000000000   1.0000000
N2   N   0.111123840343058   0.055579779969868   0.124886876816153   1.0000000
N2   N   0.611136648167578   0.555552980250091   0.125534689445917   1.0000000
N2   N   0.444499379566043   0.055581827511276   0.124871468534664   1.0000000
N2   N   0.944477173600166   0.555564090450098   0.124880830447469   1.0000000
N2   N   0.777789634517988   0.055561483925652   0.124863824223870   1.0000000
N2   N   0.111153249570095   0.722243291451703   0.625096546239074   1.0000000
N2   N   0.444499379566043   0.722250885388094   0.625128531465309   1.0000000
N2   N   0.277782900373421   0.222240036619689   0.624872055665124   1.0000000
N2   N   0.777801557987503   0.722245477924975   0.625124063139715   1.0000000
N2   N   0.611148885369318   0.222227152840074   0.625053759270459   1.0000000
N2   N   0.944440721415845   0.222215112656028   0.625148077177247   1.0000000
N2   N   0.277829211118230   0.722239156727090   0.124890620678156   1.0000000
N2   N   0.111094861704270   0.222214097518797   0.124899463609995   1.0000000
N2   N   0.444513786507344   0.222250721708605   0.125066021371017   1.0000000
N2   N   0.611148885369318   0.722255065862581   0.124946240729548   1.0000000
N2   N   0.944477173600166   0.722246416483419   0.124880830447469   1.0000000
N2   N   0.777797371306110   0.222220475698427   0.124861325002808   1.0000000
N2   N   0.111150595067725   0.888926271671706   0.625105682741120   1.0000000
N2   N   0.444494605496963   0.888913969415143   0.625134026442785   1.0000000
N2   N   0.277782900373421   0.388876197087064   0.624872055665124   1.0000000
N2   N   0.611136648167578   0.388917001250844   0.624465310554096   1.0000000
N2   N   0.777797371306110   0.888910228941022   0.625138674997196   1.0000000
N2   N   0.944465694795821   0.388885634933475   0.625142795116556   1.0000000
N2   N   0.111123840343058   0.388877393706517   0.124886876816153   1.0000000
N2   N   0.277829211118230   0.888923387724500   0.124890620678156   1.0000000
N2   N   0.611145604078046   0.888915598824303   0.124850519121704   1.0000000
N2   N   0.444475916223870   0.388904624778602   0.124318445332720   1.0000000
N2   N   0.944465694795821   0.888913393195685   0.124857204883450   1.0000000
N2   N   0.777801557987503   0.388889413395860   0.124875936860290   1.0000000
N2   N   0.277823805482608   0.555558615502848   0.625054519073997   1.0000000
N2   N   0.111123840343058   0.055579779969868   0.625113123183851   1.0000000
N2   N   0.611136648167578   0.555552980250091   0.624465310554096   1.0000000
N2   N   0.444499379566043   0.055581827511276   0.625128531465309   1.0000000
N2   N   0.944477173600166   0.555564090450098   0.625119169552535   1.0000000
N2   N   0.111150595067725   0.555557656729345   0.124894317258869   1.0000000
N2   N   0.777789634517988   0.055561483925652   0.625136175776127   1.0000000
N2   N   0.277823805482608   0.055598523313108   0.124945480925996   1.0000000
N2   N   0.444513786507344   0.555596398132074   0.125066021371017   1.0000000
N2   N   0.777806508960731   0.555569921147025   0.124978063190748   1.0000000
N2   N   0.611145604078046   0.055563338587064   0.124850519121704   1.0000000
N2   N   0.444513786507344   0.555596398132074   0.624933978628989   1.0000000
N2   N   0.944440721415845   0.055558942093152   0.124851922822752   1.0000000
N2   N   0.277829211118230   0.722239156727090   0.625109379321845   1.0000000
N2   N   0.111094861704270   0.222214097518797   0.625100536390006   1.0000000
N2   N   0.444513786507344   0.222250721708605   0.624933978628989   1.0000000
N2   N   0.611148885369318   0.722255065862581   0.625053759270459   1.0000000
N2   N   0.944477173600166   0.722246416483419   0.625119169552535   1.0000000
N2   N   0.777797371306110   0.222220475698427   0.625138674997196   1.0000000
N2   N   0.111153249570095   0.722243291451703   0.124903453760942   1.0000000
N2   N   0.444499379566043   0.722250885388094   0.124871468534664   1.0000000
N2   N   0.277782900373421   0.222240036619689   0.125127944334891   1.0000000
N2   N   0.777801557987503   0.722245477924975   0.124875936860290   1.0000000
N2   N   0.611148885369318   0.222227152840074   0.124946240729548   1.0000000
N2   N   0.944440721415845   0.222215112656028   0.124851922822752   1.0000000
N2   N   0.111123840343058   0.388877393706517   0.625113123183851   1.0000000
N2   N   0.277829211118230   0.888923387724500   0.625109379321845   1.0000000
N2   N   0.611145604078046   0.888915598824303   0.625149480878286   1.0000000
N2   N   0.444475916223870   0.388904624778602   0.625681554667288   1.0000000
N2   N   0.944465694795821   0.888913393195685   0.625142795116556   1.0000000
N2   N   0.111150595067725   0.888926271671706   0.124894317258869   1.0000000
N2   N   0.777801557987503   0.388889413395860   0.625124063139715   1.0000000
N2   N   0.444494605496963   0.888913969415143   0.124865973557201   1.0000000
N2   N   0.277782900373421   0.388876197087064   0.125127944334891   1.0000000
N2   N   0.277823805482608   0.555558615502848   0.124945480925996   1.0000000
N2   N   0.611136648167578   0.388917001250844   0.125534689445917   1.0000000
N2   N   0.777797371306110   0.888910228941022   0.124861325002808   1.0000000
N2   N   0.944465694795821   0.388885634933475   0.124857204883450   1.0000000
N2   N   0.111150595067725   0.555557656729345   0.625105682741120   1.0000000
N2   N   0.277823805482608   0.055598523313108   0.625054519073997   1.0000000
N2   N   0.777806508960731   0.555569921147025   0.625021936809259   1.0000000
N2   N   0.611145604078046   0.055563338587064   0.625149480878286   1.0000000
N2   N   0.944440721415845   0.055558942093152   0.625148077177247   1.0000000
N2   N   0.054028960666218   0.110070026325283   0.375000000000000   1.0000000
N2   N   0.556677481882482   0.609666026535229   0.375000000000000   1.0000000
N2   N   0.388359480210072   0.107556318009962   0.375000000000000   1.0000000
N2   N   0.891853237937125   0.612593285635241   0.375000000000000   1.0000000
N2   N   0.722102267838411   0.111026844966960   0.375000000000000   1.0000000
N2   N   0.055540513886312   0.777769230586208   0.875000000000000   1.0000000
N2   N   0.388872180853478   0.777770002014724   0.875000000000000   1.0000000
N2   N   0.222208150393915   0.277770741863623   0.875000000000000   1.0000000
N2   N   0.722209320339016   0.777767639064001   0.875000000000000   1.0000000
N2   N   0.555543165381808   0.277777132472195   0.875000000000000   1.0000000
N2   N   0.888880001257457   0.277778173424515   0.875000000000000   1.0000000
N2   N   0.222524611893452   0.777928972613400   0.375000000000000   1.0000000
N2   N   0.054028960666218   0.277292267674280   0.375000000000000   1.0000000
N2   N   0.377810524254048   0.258997296932925   0.375000000000000   1.0000000
N2   N   0.555992691333781   0.777599419921337   0.375000000000000   1.0000000
N2   N   0.891003489576554   0.779212031336258   0.375000000000000   1.0000000
N2   N   0.722873051530721   0.278021886856542   0.375000000000000   1.0000000
N2   N   0.055542548587354   0.944433427658637   0.875000000000000   1.0000000
N2   N   0.388872180853478   0.944435512172083   0.875000000000000   1.0000000
N2   N   0.222207079142224   0.444440442730735   0.875000000000000   1.0000000
N2   N   0.555549059829091   0.444441196581210   0.875000000000000   1.0000000
N2   N   0.722207421771594   0.944435316855710   0.875000000000000   1.0000000
N2   N   0.888879316523821   0.444442608575882   0.875000000000000   1.0000000
N2   N   0.054446956609468   0.444888271501369   0.375000000000000   1.0000000
N2   N   0.221835653395560   0.943047140055352   0.375000000000000   1.0000000
N2   N   0.555852731579921   0.944593032456627   0.375000000000000   1.0000000
N2   N   0.377810524254048   0.452146560654465   0.375000000000000   1.0000000
N2   N   0.888508207712469   0.944253514766647   0.375000000000000   1.0000000
N2   N   0.728820134248519   0.446114474612076   0.375000000000000   1.0000000
N2   N   0.222205190593543   0.611105951038495   0.875000000000000   1.0000000
N2   N   0.055543858314250   0.111102043359882   0.875000000000000   1.0000000
N2   N   0.555543165381808   0.611099366242953   0.875000000000000   1.0000000
N2   N   0.388873240221633   0.111103731709581   0.875000000000000   1.0000000
N2   N   0.888878702476061   0.611106017904694   0.875000000000000   1.0000000
N2   N   0.056493676765201   0.611827633301869   0.375000000000000   1.0000000
N2   N   0.722207421771594   0.111105438249223   0.875000000000000   1.0000000
N2   N   0.217384936325364   0.105435157149642   0.375000000000000   1.0000000
N2   N   0.388359480210072   0.614136495533437   0.375000000000000   1.0000000
N2   N   0.728820134248519   0.616038992969772   0.375000000000000   1.0000000
N2   N   0.555992691333781   0.111726604745770   0.375000000000000   1.0000000
N2   N   0.388873240221633   0.611102841845406   0.875000000000000   1.0000000
N2   N   0.888091433543730   0.110712383438528   0.375000000000000   1.0000000
N2   N   0.222203869544991   0.777768601439164   0.875000000000000   1.0000000
N2   N   0.055543858314250   0.277775148287699   0.875000000000000   1.0000000
N2   N   0.388873996065371   0.277768788075223   0.875000000000000   1.0000000
N2   N   0.555538447074282   0.777767066380375   0.875000000000000   1.0000000
N2   N   0.888879316523821   0.777770041281306   0.875000000000000   1.0000000
N2   N   0.722209320339016   0.277775014608339   0.875000000000000   1.0000000
N2   N   0.056493676765201   0.777999376796666   0.375000000000000   1.0000000
N2   N   0.389050366005590   0.778716341011941   0.375000000000000   1.0000000
N2   N   0.219987922639157   0.276660627986239   0.375000000000000   1.0000000
N2   N   0.722873051530721   0.778184498007505   0.375000000000000   1.0000000
N2   N   0.556677481882482   0.280344788680566   0.375000000000000   1.0000000
N2   N   0.888508207712469   0.277588026279147   0.375000000000000   1.0000000
N2   N   0.055542548587354   0.444442454262046   0.875000000000000   1.0000000
N2   N   0.222205190593543   0.944432572888385   0.875000000000000   1.0000000
N2   N   0.555537029121852   0.944435181227582   0.875000000000000   1.0000000
N2   N   0.388873996065371   0.444438541323485   0.875000000000000   1.0000000
N2   N   0.888880001257457   0.944435161166256   0.875000000000000   1.0000000
N2   N   0.054446956609468   0.942892018441431   0.375000000000000   1.0000000
N2   N   0.722210300877641   0.444440754148746   0.875000000000000   1.0000000
N2   N   0.389050366005590   0.943667358326999   0.375000000000000   1.0000000
N2   N   0.217384936325364   0.445283112509053   0.375000000000000   1.0000000
N2   N   0.221835653395560   0.612121846673519   0.375000000000000   1.0000000
N2   N   0.722102267838411   0.944408756204791   0.375000000000000   1.0000000
N2   N   0.891003489576554   0.445124791573636   0.375000000000000   1.0000000
N2   N   0.055540513886312   0.611104616633463   0.875000000000000   1.0000000
N2   N   0.222207079142224   0.111099969744822   0.875000000000000   1.0000000
N2   N   0.722210300877641   0.611102880062198   0.875000000000000   1.0000000
N2   N   0.555538447074282   0.111104714027237   0.875000000000000   1.0000000
N2   N   0.888878698822460   0.111106016077907   0.875000000000000   1.0000000
B2   B   0.108475854011407   0.053108894441746   0.375000000000000   1.0000000
B2   B   0.618453951095954   0.559236805388481   0.375000000000000   1.0000000
B2   B   0.444489427319100   0.054435098738038   0.375000000000000   1.0000000
B2   B   0.946107999559154   0.556179123992898   0.375000000000000   1.0000000
B2   B   0.777356491355834   0.055344912344585   0.375000000000000   1.0000000
B2   B   0.111102400071223   0.722217866702287   0.875000000000000   1.0000000
B2   B   0.444411175772924   0.722166882837890   0.875000000000000   1.0000000
B2   B   0.277808966058596   0.222259349687369   0.875000000000000   1.0000000
B2   B   0.777740263023063   0.722187073425975   0.875000000000000   1.0000000
B2   B   0.611060415769448   0.222237989949785   0.875000000000000   1.0000000
B2   B   0.944469039245842   0.222235531791589   0.875000000000000   1.0000000
B2   B   0.278045317190940   0.722742556216820   0.375000000000000   1.0000000
B2   B   0.110250242165132   0.221791787749229   0.375000000000000   1.0000000
B2   B   0.442999205513629   0.219681662528594   0.375000000000000   1.0000000
B2   B   0.611148134018753   0.720786950124335   0.375000000000000   1.0000000
B2   B   0.946107999559154   0.723262208899589   0.375000000000000   1.0000000
B2   B   0.777577379726230   0.222041241363646   0.375000000000000   1.0000000
B2   B   0.111116602001425   0.888903934107692   0.875000000000000   1.0000000
B2   B   0.444415280766206   0.888874307049764   0.875000000000000   1.0000000
B2   B   0.277808966058596   0.388882949704546   0.875000000000000   1.0000000
B2   B   0.611043025737100   0.388881295055722   0.875000000000000   1.0000000
B2   B   0.777761372330689   0.888864997656733   0.875000000000000   1.0000000
B2   B   0.944448476363660   0.388892777317180   0.875000000000000   1.0000000
B2   B   0.108475854011407   0.388700292902995   0.375000000000000   1.0000000
B2   B   0.278045317190940   0.888636094307456   0.375000000000000   1.0000000
B2   B   0.611096756803542   0.888516692686341   0.375000000000000   1.0000000
B2   B   0.944590247528502   0.889180766493877   0.375000000000000   1.0000000
B2   B   0.780973408171649   0.389127749716682   0.375000000000000   1.0000000
B2   B   0.277781574036009   0.555521923457255   0.875000000000000   1.0000000
B2   B   0.111144745080837   0.055587077047014   0.875000000000000   1.0000000
B2   B   0.611043025737100   0.555495064014727   0.875000000000000   1.0000000
B2   B   0.444411175772924   0.055577626268353   0.875000000000000   1.0000000
B2   B   0.944426895643745   0.555547246374446   0.875000000000000   1.0000000
B2   B   0.111247256463345   0.555955467430909   0.375000000000000   1.0000000
B2   B   0.777770397954406   0.055551865643870   0.875000000000000   1.0000000
B2   B   0.277021967995339   0.053965469326835   0.375000000000000   1.0000000
B2   B   0.442999205513629   0.556650876318363   0.375000000000000   1.0000000
B2   B   0.781629079881305   0.557481206607332   0.375000000000000   1.0000000
B2   B   0.611096756803542   0.055913397450513   0.375000000000000   1.0000000
B2   B   0.444403555749080   0.555482155800336   0.875000000000000   1.0000000
B2   B   0.943740381595330   0.055273669544201   0.375000000000000   1.0000000
B2   B   0.277765911018622   0.722201806197095   0.875000000000000   1.0000000
B2   B   0.111164266987363   0.222248800160349   0.875000000000000   1.0000000
B2   B   0.444403555749080   0.222254733282088   0.875000000000000   1.0000000
B2   B   0.611060415769448   0.722155759153006   0.875000000000000   1.0000000
B2   B   0.944426895643745   0.722212982602627   0.875000000000000   1.0000000
B2   B   0.777761372330689   0.222229708007277   0.875000000000000   1.0000000
B2   B   0.111883906499090   0.722608619916204   0.375000000000000   1.0000000
B2   B   0.444489427319100   0.723387661914375   0.375000000000000   1.0000000
B2   B   0.272464948644197   0.216126490095038   0.375000000000000   1.0000000
B2   B   0.780973408171649   0.725178991788302   0.375000000000000   1.0000000
B2   B   0.611148134018753   0.223694517227766   0.375000000000000   1.0000000
B2   B   0.943740381595330   0.221800045384471   0.375000000000000   1.0000000
B2   B   0.111144745080837   0.388891001367147   0.875000000000000   1.0000000
B2   B   0.277765911018622   0.888897438154851   0.875000000000000   1.0000000
B2   B   0.611076616166168   0.888854833695653   0.875000000000000   1.0000000
B2   B   0.444404279679345   0.388868806506339   0.875000000000000   1.0000000
B2   B   0.944448476363660   0.888889032379829   0.875000000000000   1.0000000
B2   B   0.111247256463345   0.888625122365777   0.375000000000000   1.0000000
B2   B   0.777740263023063   0.388886522930400   0.875000000000000   1.0000000
B2   B   0.444752843387303   0.889043088360301   0.375000000000000   1.0000000
B2   B   0.272464948644197   0.389671791882486   0.375000000000000   1.0000000
B2   B   0.277021967995339   0.556389832001850   0.375000000000000   1.0000000
B2   B   0.618453951095954   0.392550479040809   0.375000000000000   1.0000000
B2   B   0.777577379726230   0.888869471695902   0.375000000000000   1.0000000
B2   B   0.944590247528502   0.388742814367971   0.375000000000000   1.0000000
B2   B   0.111116602001425   0.555546001227077   0.875000000000000   1.0000000
B2   B   0.277781574036009   0.055592983912098   0.875000000000000   1.0000000
B2   B   0.777730638513048   0.555531985923196   0.875000000000000   1.0000000
B2   B   0.611076616166168   0.055555115803843   0.875000000000000   1.0000000
B2   B   0.944469039245842   0.055566840787589   0.875000000000000   1.0000000
B2   B   0.055664497357455   0.111217212338932   0.125151097987377   1.0000000
B2   B   0.555433673190587   0.610970785155910   0.125640443610637   1.0000000
B2   B   0.388986497390736   0.111333224664805   0.125421154141986   1.0000000
B2   B   0.888855405255692   0.611094369294520   0.125037339999778   1.0000000
B2   B   0.722225378141298   0.111116459601531   0.125034250150634   1.0000000
B2   B   0.055617391325903   0.777848740180974   0.624956271994304   1.0000000
B2   B   0.388976222122482   0.777762040153648   0.624914217286559   1.0000000
B2   B   0.222420436404751   0.277876884869045   0.624306872882737   1.0000000
B2   B   0.722165768033535   0.777740621375625   0.624898773939403   1.0000000
B2   B   0.555433673190587   0.277796221368011   0.624359556389358   1.0000000
B2   B   0.888914699197850   0.277760396780506   0.624967918030719   1.0000000
B2   B   0.222323751458998   0.777828542396173   0.125065418537116   1.0000000
B2   B   0.055664497357455   0.277780618351854   0.125151097987377   1.0000000
B2   B   0.388999711175997   0.278026388947589   0.126324520369283   1.0000000
B2   B   0.555561829859877   0.777725819907817   0.125126446064472   1.0000000
B2   B   0.888872736818972   0.777797293089868   0.125015351947053   1.0000000
B2   B   0.722165768033535   0.277758479991262   0.125101226060584   1.0000000
B2   B   0.055646476946810   0.944578524178195   0.624926812963651   1.0000000
B2   B   0.388976222122482   0.944547515302174   0.624914217286559   1.0000000
B2   B   0.222397186375417   0.444366822093790   0.624560184255981   1.0000000
B2   B   0.555191221480981   0.444262277407155   0.624077566845826   1.0000000
B2   B   0.722225378141298   0.944442251873123   0.624965749849368   1.0000000
B2   B   0.888872736818972   0.444408777062419   0.624984648052946   1.0000000
B2   B   0.055646476946810   0.444401286101938   0.125073187036348   1.0000000
B2   B   0.222348468359015   0.944626000958590   0.125130991171732   1.0000000
B2   B   0.555590309281292   0.944461821307310   0.125043805851161   1.0000000
B2   B   0.388999711175997   0.444306655561738   0.126324520369283   1.0000000
B2   B   0.888914699197850   0.944487635750666   0.125032081969272   1.0000000
B2   B   0.722080684745177   0.444383400370509   0.125344443032024   1.0000000
B2   B   0.222348468359015   0.611055800733764   0.624869008828280   1.0000000
B2   B   0.055664497357455   0.111217212338932   0.624848902012612   1.0000000
B2   B   0.555433673190587   0.610970785155910   0.624359556389358   1.0000000
B2   B   0.388986497390736   0.111333224664805   0.624578845858029   1.0000000
B2   B   0.888855405255692   0.611094369294520   0.624962660000222   1.0000000
B2   B   0.055617391325903   0.611101984478249   0.125043728005700   1.0000000
B2   B   0.722225378141298   0.111116459601531   0.624965749849368   1.0000000
B2   B   0.222397186375417   0.111363697614959   0.125439815744016   1.0000000
B2   B   0.388986497390736   0.610986606059284   0.125421154141986   1.0000000
B2   B   0.722080684745177   0.611030617708004   0.125344443032024   1.0000000
B2   B   0.555561829859877   0.111169343285395   0.125126446064472   1.0000000
B2   B   0.388986497390736   0.610986606059284   0.624578845858029   1.0000000
B2   B   0.888931946549639   0.111132639941495   0.125043663888258   1.0000000
B2   B   0.222323751458998   0.777828542396173   0.624934581462902   1.0000000
B2   B   0.055664497357455   0.277780618351854   0.624848902012612   1.0000000
B2   B   0.388999711175997   0.278026388947589   0.623675479630711   1.0000000
B2   B   0.555561829859877   0.777725819907817   0.624873553935539   1.0000000
B2   B   0.888872736818972   0.777797293089868   0.624984648052946   1.0000000
B2   B   0.722165768033535   0.277758479991262   0.624898773939403   1.0000000
B2   B   0.055617391325903   0.777848740180974   0.125043728005700   1.0000000
B2   B   0.388976222122482   0.777762040153648   0.125085782713437   1.0000000
B2   B   0.222420436404751   0.277876884869045   0.125693127117262   1.0000000
B2   B   0.722165768033535   0.777740621375625   0.125101226060584   1.0000000
B2   B   0.555433673190587   0.277796221368011   0.125640443610637   1.0000000
B2   B   0.888914699197850   0.277760396780506   0.125032081969272   1.0000000
B2   B   0.055646476946810   0.444401286101938   0.624926812963651   1.0000000
B2   B   0.222348468359015   0.944626000958590   0.624869008828280   1.0000000
B2   B   0.555590309281292   0.944461821307310   0.624956194148843   1.0000000
B2   B   0.388999711175997   0.444306655561738   0.623675479630711   1.0000000
B2   B   0.888914699197850   0.944487635750666   0.624967918030719   1.0000000
B2   B   0.055646476946810   0.944578524178195   0.125073187036348   1.0000000
B2   B   0.722080684745177   0.444383400370509   0.624655556967972   1.0000000
B2   B   0.388976222122482   0.944547515302174   0.125085782713437   1.0000000
B2   B   0.222397186375417   0.444366822093790   0.125439815744016   1.0000000
B2   B   0.222348468359015   0.611055800733764   0.125130991171732   1.0000000
B2   B   0.555191221480981   0.444262277407155   0.125922433154171   1.0000000
B2   B   0.722225378141298   0.944442251873123   0.125034250150634   1.0000000
B2   B   0.888872736818972   0.444408777062419   0.125015351947053   1.0000000
B2   B   0.055617391325903   0.611101984478249   0.624956271994304   1.0000000
B2   B   0.222397186375417   0.111363697614959   0.624560184255981   1.0000000
B2   B   0.722080684745177   0.611030617708004   0.624655556967972   1.0000000
B2   B   0.555561829859877   0.111169343285395   0.624873553935539   1.0000000
B2   B   0.888931946549639   0.111132639941495   0.624956336111732   1.0000000


