data_1
_audit_creation_method   'vasp2cif'
_cell_length_a    17.52789999999977
_cell_length_b    17.52789999999977
_cell_length_c    15.0
_cell_angle_alpha    90.0
_cell_angle_beta    90.0
_cell_angle_gamma    119.99999999999916

_symmetry_space_group_name_H-M    'P 1'
loop_
_atom_site_label
_atom_site_type_symbol
_atom_site_fract_x
_atom_site_fract_y
_atom_site_fract_z
_atom_site_occupancy
B2   B   0.906461882666783   0.958264469202604   0.111939211088178   1.0000000
B2   B   0.906061266755010   0.100681842206974   0.111983685349166   1.0000000
B2   B   0.906136695863381   0.243253811152790   0.112005477672291   1.0000000
B2   B   0.906718173190306   0.386128579080321   0.111809489723598   1.0000000
B2   B   0.908583358369448   0.529552725978569   0.111347496049873   1.0000000
B2   B   0.908566383482651   0.673217655821112   0.111265161673117   1.0000000
B2   B   0.908593006122565   0.816940277039670   0.111376674571439   1.0000000
B2   B   0.049122096145851   0.957621012816148   0.112138896812347   1.0000000
B2   B   0.048478639759374   0.100281226295202   0.111939211088178   1.0000000
B2   B   0.048305216927098   0.243154971003690   0.111673644550329   1.0000000
B2   B   0.048574934294223   0.386175407125407   0.111944368467526   1.0000000
B2   B   0.049346336621113   0.529386387096189   0.112001284218884   1.0000000
B2   B   0.049847930416831   0.672458389948801   0.111883906140072   1.0000000
B2   B   0.049823661174756   0.815216504259418   0.111984159550232   1.0000000
B2   B   0.191526604702609   0.956919447787293   0.111984159550232   1.0000000
B2   B   0.189802831922329   0.098150102839448   0.111376674571439   1.0000000
B2   B   0.190349176867038   0.242533378973547   0.111556497958524   1.0000000
B2   B   0.190244615340099   0.386026621463898   0.111860020299900   1.0000000
B2   B   0.190380180579702   0.529576365465815   0.111732368794343   1.0000000
B2   B   0.191557240423123   0.672439146158602   0.111939149192473   1.0000000
B2   B   0.191887507731998   0.814855601229972   0.111854308671376   1.0000000
B2   B   0.334284719014228   0.956895178545203   0.111883906140072   1.0000000
B2   B   0.333525453141874   0.098176725479327   0.111265161673117   1.0000000
B2   B   0.329233041348672   0.237046876950544   0.110641003031453   1.0000000
B2   B   0.332330737940701   0.385491143249787   0.110017266405535   1.0000000
B2   B   0.330539314159474   0.530701979846000   0.111977695501878   1.0000000
B2   B   0.333488904914873   0.673254204048142   0.111696753885937   1.0000000
B2   B   0.334303962804405   0.815185868538848   0.111939149192473   1.0000000
B2   B   0.477356721866777   0.957396772340878   0.112001284218884   1.0000000
B2   B   0.477190382984418   0.098159750592586   0.111347496049873   1.0000000
B2   B   0.476620398960904   0.237387685667827   0.111256510807927   1.0000000
B2   B   0.465359908869232   0.363185666322167   0.117223718168468   1.0000000
B2   B   0.476041129117022   0.676203794803534   0.111977695501878   1.0000000
B2   B   0.477166743497200   0.816362928382283   0.111732368794343   1.0000000
B2   B   0.620567701836585   0.958168174667762   0.111944368467526   1.0000000
B2   B   0.620614529881692   0.100024935771735   0.111809489723598   1.0000000
B2   B   0.620951294418937   0.241961801701500   0.111652528362342   1.0000000
B2   B   0.622138720478809   0.384604388483204   0.111027888112510   1.0000000
B2   B   0.643557442639846   0.541383200093733   0.117223718168468   1.0000000
B2   B   0.621251965712247   0.674412371022278   0.110017266405542   1.0000000
B2   B   0.620716487498143   0.816498493621935   0.111860020299900   1.0000000
B2   B   0.763588137958322   0.958437892034894   0.111673644550329   1.0000000
B2   B   0.763489297809265   0.100606413098617   0.112005477672291   1.0000000
B2   B   0.763769047114714   0.242974061847264   0.111639963586249   1.0000000
B2   B   0.764781307260506   0.385791814543033   0.111652528362335   1.0000000
B2   B   0.769355423294165   0.530122710002061   0.111256510807927   1.0000000
B2   B   0.769696232011448   0.677510067614335   0.110641003031453   1.0000000
B2   B   0.764209729988423   0.816393932094961   0.111556497958531   1.0000000
C2   C   0.468120035840741   0.538623073122260   0.111502092871106   1.0000000
N2   N   0.954612670869174   0.911198689170632   0.112014776355387   1.0000000
N2   N   0.953601881946469   0.053140607737532   0.112004023914764   1.0000000
N2   N   0.953500717886271   0.195671204730679   0.111871194539979   1.0000000
N2   N   0.953756250814948   0.338371697507427   0.111940689653359   1.0000000
N2   N   0.954772508706405   0.481356392277611   0.111866405224184   1.0000000
N2   N   0.955129306995993   0.624789310403088   0.111626670226478   1.0000000
N2   N   0.955096490126941   0.768206617104404   0.111606877167311   1.0000000
N2   N   0.096704264478610   0.910038225205390   0.112065776290692   1.0000000
N2   N   0.095543800513333   0.052129818814826   0.112014776355387   1.0000000
N2   N   0.095745497225238   0.195485201029953   0.111782614307032   1.0000000
N2   N   0.095719244817843   0.338304685086243   0.111852881953332   1.0000000
N2   N   0.095977821060224   0.481396797508367   0.111959222050167   1.0000000
N2   N   0.096779934702070   0.624538354589525   0.111873380830424   1.0000000
N2   N   0.097043933297812   0.767437995320940   0.111953172470351   1.0000000
N2   N   0.239304494363083   0.909698556386189   0.111953172470344   1.0000000
N2   N   0.238535872579604   0.051645999557060   0.111606877167311   1.0000000
N2   N   0.235837815724729   0.192559929710363   0.110677822889059   1.0000000
N2   N   0.238005212216294   0.338459300048399   0.111247734374977   1.0000000
N2   N   0.236886494334037   0.481418577113828   0.111686403659149   1.0000000
N2   N   0.238638768053583   0.624768653481432   0.111882505452229   1.0000000
N2   N   0.239327155126560   0.767415334557420   0.111827798545946   1.0000000
N2   N   0.382204135094455   0.909962554981959   0.111873380830424   1.0000000
N2   N   0.381953179280970   0.051613182688023   0.111626670226478   1.0000000
N2   N   0.380807775853519   0.192866578262745   0.110794329822582   1.0000000
N2   N   0.374538478671589   0.331190122745049   0.111649198386466   1.0000000
N2   N   0.377765244250654   0.483541138820719   0.111751870907710   1.0000000
N2   N   0.380806409424700   0.625936080259265   0.111685818579822   1.0000000
N2   N   0.381973836202576   0.768103721630439   0.111882505452229   1.0000000
N2   N   0.525345692174611   0.910764668623813   0.111959222050167   1.0000000
N2   N   0.525386097405367   0.051969980977603   0.111866405224184   1.0000000
N2   N   0.525455017992670   0.192618337124990   0.110842642607615   1.0000000
N2   N   0.525230860376297   0.331753964429730   0.113162730880809   1.0000000
N2   N   0.523201350862223   0.628977245433397   0.111751870907710   1.0000000
N2   N   0.525323912569192   0.769855995350007   0.111686403659149   1.0000000
N2   N   0.668437804596770   0.911023244866144   0.111852881953332   1.0000000
N2   N   0.668370792175530   0.052986238869025   0.111940689653359   1.0000000
N2   N   0.668604958848050   0.195102025105662   0.111719438478168   1.0000000
N2   N   0.669214681012591   0.337527808670451   0.111337557920429   1.0000000
N2   N   0.674988525253255   0.481511629306723   0.113162730880802   1.0000000
N2   N   0.675552366937943   0.632204011012398   0.111649198386473   1.0000000
N2   N   0.668283189634550   0.768737277467643   0.111247734374985   1.0000000
N2   N   0.811257288654048   0.910996992458784   0.111782614307032   1.0000000
N2   N   0.811071284953343   0.053241771797708   0.111871194539979   1.0000000
N2   N   0.811152544660729   0.195589945023244   0.111911783866994   1.0000000
N2   N   0.811640464578332   0.338137530835020   0.111719438478168   1.0000000
N2   N   0.814124152558989   0.481287471690329   0.110842642607615   1.0000000
N2   N   0.813875911421249   0.625934713830517   0.110794329822582   1.0000000
N2   N   0.814182559973595   0.770904673959279   0.110677822889059   1.0000000
Se2   Se   0.525306955272008   0.481435534411020   0.115890992036277   1.0000000


