data_1
_audit_creation_method   'vasp2cif'
_cell_length_a    17.52789999999977
_cell_length_b    17.52789999999977
_cell_length_c    15.0
_cell_angle_alpha    90.0
_cell_angle_beta    90.0
_cell_angle_gamma    119.99999999999916

_symmetry_space_group_name_H-M    'P 1'
loop_
_atom_site_label
_atom_site_type_symbol
_atom_site_fract_x
_atom_site_fract_y
_atom_site_fract_z
_atom_site_occupancy
B2   B   0.904594230507937   0.952013148645153   0.111043774721049   1.0000000
B2   B   0.904713794127863   0.095038826243484   0.110995595475962   1.0000000
B2   B   0.904650845339429   0.238022200357472   0.111050682650448   1.0000000
B2   B   0.904371031562608   0.380893948898630   0.110983463039388   1.0000000
B2   B   0.904442768168221   0.523651727376143   0.111084965990700   1.0000000
B2   B   0.905197646040601   0.666649743079479   0.111093727987877   1.0000000
B2   B   0.905186778835181   0.809598326213607   0.111054517844251   1.0000000
B2   B   0.047802297078396   0.952444952064338   0.110961785975663   1.0000000
B2   B   0.047749827596966   0.095247313621395   0.110948206164163   1.0000000
B2   B   0.047753412664925   0.238031287933981   0.111039318286697   1.0000000
B2   B   0.047627790679141   0.380772260273528   0.111075512746355   1.0000000
B2   B   0.047476979574403   0.523585029632929   0.110950254307507   1.0000000
B2   B   0.047665204910575   0.666504008402064   0.110987983459395   1.0000000
B2   B   0.047806644653821   0.809524181908917   0.111014032262054   1.0000000
B2   B   0.190480996567645   0.952227664339030   0.110991809220251   1.0000000
B2   B   0.190616548425920   0.095208253316970   0.111167685724363   1.0000000
B2   B   0.190974918208823   0.238399273647315   0.110984120408838   1.0000000
B2   B   0.190927104521538   0.380860840635835   0.110920338071533   1.0000000
B2   B   0.190428292434495   0.523674148220229   0.110980637707509   1.0000000
B2   B   0.190332747815418   0.666562885980083   0.111109415880965   1.0000000
B2   B   0.190517026020104   0.809457812424508   0.110969205189994   1.0000000
B2   B   0.333484751783172   0.952392664660903   0.111076014788268   1.0000000
B2   B   0.333176534773799   0.094750562423918   0.111014875166605   1.0000000
B2   B   0.333371725595139   0.237083898164300   0.110870473477635   1.0000000
B2   B   0.334866501811838   0.381611214731371   0.111079077526290   1.0000000
B2   B   0.333257084745059   0.524597781115116   0.111094640243204   1.0000000
B2   B   0.332989819751807   0.666802755607231   0.111079759145714   1.0000000
B2   B   0.333406534912915   0.809572052423921   0.110979692140608   1.0000000
B2   B   0.476404074335400   0.952524360193832   0.111000571902078   1.0000000
B2   B   0.476430094300653   0.096261297454165   0.111073008001904   1.0000000
B2   B   0.475524342818109   0.239230789641172   0.111034296665658   1.0000000
B2   B   0.475225627104209   0.664795255377859   0.110954686750925   1.0000000
B2   B   0.476267988367067   0.808757977849253   0.111022080934241   1.0000000
B2   B   0.619090955000467   0.952024739352739   0.111030354254591   1.0000000
B2   B   0.619131822388133   0.095816241840942   0.110962203155745   1.0000000
B2   B   0.619275190025506   0.240007785688774   0.111062791379743   1.0000000
B2   B   0.620602649167952   0.387350618950432   0.111150837719176   1.0000000
B2   B   0.618930932847858   0.662736650534212   0.110697551167559   1.0000000
B2   B   0.619043787026160   0.808189618801031   0.110960125568189   1.0000000
B2   B   0.761779736595722   0.951798387710399   0.111073756774505   1.0000000
B2   B   0.761826986283527   0.095170289051328   0.111037306137283   1.0000000
B2   B   0.761721381013895   0.238513729377616   0.111018345829647   1.0000000
B2   B   0.761181717523484   0.381737740313262   0.111040949686958   1.0000000
B2   B   0.760237987726219   0.523828177853748   0.111127962294883   1.0000000
B2   B   0.762947945584606   0.665881709239395   0.110827515630284   1.0000000
B2   B   0.761439204597991   0.808225594979308   0.110955638327751   1.0000000
C2   C   0.474862597867008   0.380522866130323   0.111339034192381   1.0000000
C2   C   0.474727292139054   0.522245444275371   0.111325785903308   1.0000000
C2   C   0.514550418162692   0.471542310908507   0.111693488037203   1.0000000
N2   N   0.952868997363423   0.905155734515655   0.110965635174542   1.0000000
N2   N   0.952594847668539   0.047662633961165   0.110907980827178   1.0000000
N2   N   0.952629611552198   0.190473620831290   0.110990948149431   1.0000000
N2   N   0.952516494047884   0.333237005973370   0.111037084397879   1.0000000
N2   N   0.952571961004339   0.476014500074800   0.110978566279060   1.0000000
N2   N   0.953085268556629   0.619064032818831   0.111012176521446   1.0000000
N2   N   0.953173057328542   0.762346232817091   0.111238510619505   1.0000000
N2   N   0.095629913750684   0.905039761655974   0.110828847531421   1.0000000
N2   N   0.095737104363680   0.048032050226253   0.111065217750982   1.0000000
N2   N   0.095994619145273   0.190898277030625   0.110860343221734   1.0000000
N2   N   0.095961150560179   0.333380516393753   0.111251690676352   1.0000000
N2   N   0.095572181889900   0.475984812832427   0.110902482414875   1.0000000
N2   N   0.095518198397625   0.618869548853643   0.110944184327538   1.0000000
N2   N   0.095652309028178   0.761985978488344   0.110961522582227   1.0000000
N2   N   0.238370054185480   0.904889048227388   0.110966373014335   1.0000000
N2   N   0.238277053908696   0.047793424756736   0.111163253549112   1.0000000
N2   N   0.238854062161129   0.191130685089613   0.111211431114449   1.0000000
N2   N   0.239969829890764   0.334138764131667   0.110843205483130   1.0000000
N2   N   0.238772636733495   0.476035178848671   0.110683000012821   1.0000000
N2   N   0.238141792657464   0.618800541380451   0.111272306319656   1.0000000
N2   N   0.238314398956725   0.761846828185202   0.111010787757784   1.0000000
N2   N   0.381116350642881   0.904801042343458   0.111029475017006   1.0000000
N2   N   0.381083447996045   0.047865227106277   0.111146935233431   1.0000000
N2   N   0.380717998759184   0.190437972186655   0.110595168523402   1.0000000
N2   N   0.383086688754070   0.333794144265965   0.110830453274678   1.0000000
N2   N   0.382928731515833   0.477606320186113   0.111460199831412   1.0000000
N2   N   0.380555165265557   0.618676026127148   0.111082458746167   1.0000000
N2   N   0.380979306440737   0.761650187083675   0.110810873987291   1.0000000
N2   N   0.523688612454032   0.904192246474781   0.111097971230618   1.0000000
N2   N   0.523717469157168   0.048070831576120   0.110866899849758   1.0000000
N2   N   0.523397098037936   0.192060889312290   0.111218284499728   1.0000000
N2   N   0.520604591025329   0.335860994617495   0.111266131710200   1.0000000
N2   N   0.520405098319778   0.613303602165688   0.110672313273060   1.0000000
N2   N   0.523286044047139   0.759887799918833   0.111083112201981   1.0000000
N2   N   0.666289635377102   0.903839414847631   0.110969914593620   1.0000000
N2   N   0.666436121534429   0.047504384833521   0.110967598899406   1.0000000
N2   N   0.666280988933291   0.191096517070041   0.111021146674716   1.0000000
N2   N   0.665415432423570   0.334502091580950   0.110901456303447   1.0000000
N2   N   0.667883920912799   0.478261544163997   0.111177166058195   1.0000000
N2   N   0.670481452651515   0.623335528484606   0.110664816085794   1.0000000
N2   N   0.665389151266707   0.759856042219055   0.110781119331962   1.0000000
N2   N   0.809214580302084   0.904189743684354   0.111208285954453   1.0000000
N2   N   0.809415569434685   0.047348392718615   0.111030631507968   1.0000000
N2   N   0.809389721605476   0.190454914535264   0.111037335707413   1.0000000
N2   N   0.809127508632109   0.333429672627805   0.110940288572062   1.0000000
N2   N   0.809787389590230   0.476379396160836   0.111244816311547   1.0000000
N2   N   0.811318285760168   0.619670160294176   0.110874194549368   1.0000000
N2   N   0.810400138577868   0.762399199135136   0.110871650653597   1.0000000


