data_1
_audit_creation_method   'vasp2cif'
_cell_length_a    14.93631414619966
_cell_length_b    14.936314146199727
_cell_length_c    13.341276283792837
_cell_angle_alpha    90.0
_cell_angle_beta    90.0
_cell_angle_gamma    119.99999999999984

_symmetry_space_group_name_H-M    'P 1'
loop_
_atom_site_label
_atom_site_type_symbol
_atom_site_fract_x
_atom_site_fract_y
_atom_site_fract_z
_atom_site_occupancy
Si2   Si   0.555555555555557   0.444444444444443   0.375000000000000   1.0000000
N2   N   0.111079515462056   0.055550583744307   0.124989867251082   1.0000000
N2   N   0.611228149400109   0.555789632133553   0.123822572519298   1.0000000
N2   N   0.444463327526490   0.055572441432120   0.125082090654392   1.0000000
N2   N   0.944427558567882   0.555536672473506   0.125082090654392   1.0000000
N2   N   0.777798586697118   0.055565960015229   0.124957374042880   1.0000000
N2   N   0.111101618060853   0.722217475697086   0.625128450372950   1.0000000
N2   N   0.444463327526490   0.722224219427700   0.624917909345618   1.0000000
N2   N   0.277694201647040   0.222187954005834   0.624899100000991   1.0000000
N2   N   0.777812045994163   0.722305798352974   0.624899100000991   1.0000000
N2   N   0.611160419025470   0.222187954005834   0.624899100000991   1.0000000
N2   N   0.944434039984768   0.222201413302875   0.625042625957123   1.0000000
N2   N   0.277782524302911   0.722217475697086   0.124871549627053   1.0000000
N2   N   0.111042780918167   0.222188057125748   0.125067016039917   1.0000000
N2   N   0.444454522409748   0.222242378152836   0.125423202038205   1.0000000
N2   N   0.611160419025470   0.722305798352974   0.125100899999001   1.0000000
N2   N   0.944427558567882   0.722224219427700   0.125082090654392   1.0000000
N2   N   0.777811942874257   0.222188057125748   0.125067016039917   1.0000000
N2   N   0.111103116154977   0.888896883845027   0.625163560637469   1.0000000
N2   N   0.444460434356717   0.888896883845027   0.625163560637469   1.0000000
N2   N   0.277694201647040   0.388839580974526   0.624899100000991   1.0000000
N2   N   0.611228149400109   0.388771850599888   0.626177427480700   1.0000000
N2   N   0.777811942874257   0.888957219081841   0.624932983960081   1.0000000
N2   N   0.944449416255698   0.388862265051082   0.625010132748928   1.0000000
N2   N   0.111079515462056   0.388862265051082   0.124989867251082   1.0000000
N2   N   0.277782524302911   0.888898381939151   0.124871549627053   1.0000000
N2   N   0.611137734948923   0.888920484537949   0.124989867251082   1.0000000
N2   N   0.444210367866444   0.388771850599888   0.123822572519298   1.0000000
N2   N   0.944449416255698   0.888920484537949   0.124989867251082   1.0000000
N2   N   0.777812045994163   0.388839580974526   0.125100899999001   1.0000000
N2   N   0.277775780572292   0.555536672473506   0.624917909345618   1.0000000
N2   N   0.111079515462056   0.055550583744307   0.625010132748928   1.0000000
N2   N   0.611228149400109   0.555789632133553   0.626177427480699   1.0000000
N2   N   0.444463327526490   0.055572441432120   0.624917909345618   1.0000000
N2   N   0.944427558567882   0.555536672473506   0.624917909345618   1.0000000
N2   N   0.111103116154977   0.555539565643286   0.124836439362541   1.0000000
N2   N   0.777798586697118   0.055565960015229   0.625042625957123   1.0000000
N2   N   0.277775780572292   0.055572441432120   0.125082090654392   1.0000000
N2   N   0.444454522409748   0.555545477590255   0.125423202038205   1.0000000
N2   N   0.777757621847167   0.555545477590255   0.125423202038205   1.0000000
N2   N   0.611137734948923   0.055550583744307   0.124989867251082   1.0000000
N2   N   0.444454522409748   0.555545477590255   0.624576797961798   1.0000000
N2   N   0.944434039984768   0.055565960015229   0.124957374042880   1.0000000
N2   N   0.277782524302911   0.722217475697086   0.625128450372950   1.0000000
N2   N   0.111042780918167   0.222188057125748   0.624932983960081   1.0000000
N2   N   0.444454522409748   0.222242378152836   0.624576797961798   1.0000000
N2   N   0.611160419025470   0.722305798352974   0.624899100000991   1.0000000
N2   N   0.944427558567882   0.722224219427700   0.624917909345618   1.0000000
N2   N   0.777811942874257   0.222188057125748   0.624932983960081   1.0000000
N2   N   0.111101618060853   0.722217475697086   0.124871549627053   1.0000000
N2   N   0.444463327526490   0.722224219427700   0.125082090654392   1.0000000
N2   N   0.277694201647040   0.222187954005834   0.125100899999001   1.0000000
N2   N   0.777812045994163   0.722305798352974   0.125100899999001   1.0000000
N2   N   0.611160419025470   0.222187954005834   0.125100899999001   1.0000000
N2   N   0.944434039984768   0.222201413302875   0.124957374042880   1.0000000
N2   N   0.111079515462056   0.388862265051082   0.625010132748928   1.0000000
N2   N   0.277782524302911   0.888898381939151   0.625128450372950   1.0000000
N2   N   0.611137734948923   0.888920484537949   0.625010132748928   1.0000000
N2   N   0.444210367866444   0.388771850599888   0.626177427480700   1.0000000
N2   N   0.944449416255698   0.888920484537949   0.625010132748928   1.0000000
N2   N   0.111103116154977   0.888896883845027   0.124836439362541   1.0000000
N2   N   0.777812045994163   0.388839580974526   0.624899100000991   1.0000000
N2   N   0.444460434356717   0.888896883845027   0.124836439362541   1.0000000
N2   N   0.277694201647040   0.388839580974526   0.125100899999001   1.0000000
N2   N   0.277775780572292   0.555536672473506   0.125082090654392   1.0000000
N2   N   0.611228149400109   0.388771850599888   0.123822572519298   1.0000000
N2   N   0.777811942874257   0.888957219081841   0.125067016039917   1.0000000
N2   N   0.944449416255698   0.388862265051082   0.124989867251082   1.0000000
N2   N   0.111103116154977   0.555539565643286   0.625163560637469   1.0000000
N2   N   0.277775780572292   0.055572441432120   0.624917909345618   1.0000000
N2   N   0.777757621847167   0.555545477590255   0.624576797961798   1.0000000
N2   N   0.611137734948923   0.055550583744307   0.625010132748928   1.0000000
N2   N   0.944434039984768   0.055565960015229   0.625042625957123   1.0000000
N2   N   0.054443199594467   0.110352567556511   0.375000000000000   1.0000000
N2   N   0.555600123390962   0.620835565773323   0.375000000000000   1.0000000
N2   N   0.387570884654315   0.108475102641970   0.375000000000000   1.0000000
N2   N   0.891524897358028   0.612429115345686   0.375000000000000   1.0000000
N2   N   0.722576034628713   0.110352567556511   0.375000000000000   1.0000000
N2   N   0.055562456762255   0.777779991662671   0.875000000000000   1.0000000
N2   N   0.388884201567083   0.777779991662671   0.875000000000000   1.0000000
N2   N   0.222232985098916   0.277783159216127   0.875000000000000   1.0000000
N2   N   0.722216840783870   0.777767014901082   0.875000000000000   1.0000000
N2   N   0.555541307927157   0.277765737273319   0.875000000000000   1.0000000
N2   N   0.888889436763457   0.277784031742019   0.875000000000000   1.0000000
N2   N   0.222222222222221   0.777777777777779   0.375000000000000   1.0000000
N2   N   0.054443199594467   0.277423965371287   0.375000000000000   1.0000000
N2   N   0.379164434226672   0.268097890950982   0.375000000000000   1.0000000
N2   N   0.555088437325555   0.781627960237088   0.375000000000000   1.0000000
N2   N   0.893206189578194   0.781627960237088   0.375000000000000   1.0000000
N2   N   0.724021400994634   0.275978599005370   0.375000000000000   1.0000000
N2   N   0.055559004068340   0.944440995931650   0.875000000000000   1.0000000
N2   N   0.388884201567083   0.944437543237739   0.875000000000000   1.0000000
N2   N   0.222225422434182   0.444452812399923   0.875000000000000   1.0000000
N2   N   0.555555555555557   0.444444444444443   0.875000000000000   1.0000000
N2   N   0.722215968257986   0.944438738354761   0.875000000000000   1.0000000
N2   N   0.888894056632407   0.444452812399923   0.875000000000000   1.0000000
N2   N   0.055777667821067   0.444888668975459   0.375000000000000   1.0000000
N2   N   0.221817206363846   0.943344216204533   0.375000000000000   1.0000000
N2   N   0.555111331024540   0.944222332178927   0.375000000000000   1.0000000
N2   N   0.379164434226672   0.444399876609029   0.375000000000000   1.0000000
N2   N   0.889647432443488   0.945556800405534   0.375000000000000   1.0000000
N2   N   0.731902109049023   0.444399876609029   0.375000000000000   1.0000000
N2   N   0.222220008337326   0.611115798432911   0.875000000000000   1.0000000
N2   N   0.055561261645235   0.111110563236551   0.875000000000000   1.0000000
N2   N   0.555541307927157   0.611108903987177   0.875000000000000   1.0000000
N2   N   0.388881306984663   0.111095947302672   0.875000000000000   1.0000000
N2   N   0.888904052697332   0.611118693015333   0.875000000000000   1.0000000
N2   N   0.056655783795471   0.611806323492657   0.375000000000000   1.0000000
N2   N   0.722215968257986   0.111110563236551   0.875000000000000   1.0000000
N2   N   0.218372039762917   0.106793810421811   0.375000000000000   1.0000000
N2   N   0.387570884654315   0.612429115345686   0.375000000000000   1.0000000
N2   N   0.731902109049023   0.620835565773323   0.375000000000000   1.0000000
N2   N   0.555088437325555   0.106793810421811   0.375000000000000   1.0000000
N2   N   0.388881306984663   0.611118693015333   0.875000000000000   1.0000000
N2   N   0.888888888888886   0.111111111111114   0.375000000000000   1.0000000
N2   N   0.222222222222221   0.777777777777779   0.875000000000000   1.0000000
N2   N   0.055561261645235   0.277784031742019   0.875000000000000   1.0000000
N2   N   0.388891096012826   0.277765737273319   0.875000000000000   1.0000000
N2   N   0.555547187600067   0.777774577565827   0.875000000000000   1.0000000
N2   N   0.888894056632407   0.777774577565827   0.875000000000000   1.0000000
N2   N   0.722216840783870   0.277783159216127   0.875000000000000   1.0000000
N2   N   0.056655783795471   0.778182793636156   0.375000000000000   1.0000000
N2   N   0.388193676507349   0.778182793636156   0.375000000000000   1.0000000
N2   N   0.218623864677402   0.275978599005370   0.375000000000000   1.0000000
N2   N   0.724021400994634   0.781376135322596   0.375000000000000   1.0000000
N2   N   0.555600123390962   0.268097890950982   0.375000000000000   1.0000000
N2   N   0.889647432443488   0.277423965371287   0.375000000000000   1.0000000
N2   N   0.055559004068340   0.444451341470012   0.875000000000000   1.0000000
N2   N   0.222220008337326   0.944437543237739   0.875000000000000   1.0000000
N2   N   0.555548658529990   0.944440995931650   0.875000000000000   1.0000000
N2   N   0.388891096012826   0.444458692072843   0.875000000000000   1.0000000
N2   N   0.888889436763457   0.944438738354761   0.875000000000000   1.0000000
N2   N   0.055777667821067   0.944222332178927   0.375000000000000   1.0000000
N2   N   0.722234262726678   0.444458692072843   0.875000000000000   1.0000000
N2   N   0.388193676507349   0.943344216204533   0.375000000000000   1.0000000
N2   N   0.218372039762917   0.444911562674443   0.375000000000000   1.0000000
N2   N   0.221817206363846   0.611806323492657   0.375000000000000   1.0000000
N2   N   0.722576034628713   0.945556800405534   0.375000000000000   1.0000000
N2   N   0.893206189578194   0.444911562674443   0.375000000000000   1.0000000
N2   N   0.055562456762255   0.611115798432911   0.875000000000000   1.0000000
N2   N   0.222225422434182   0.111105943367593   0.875000000000000   1.0000000
N2   N   0.722234262726678   0.611108903987177   0.875000000000000   1.0000000
N2   N   0.555547187600067   0.111105943367593   0.875000000000000   1.0000000
N2   N   0.888888888888886   0.111111111111114   0.875000000000000   1.0000000
B2   B   0.109122612922799   0.053928888130343   0.375000000000000   1.0000000
B2   B   0.622477404693478   0.578288142720284   0.375000000000000   1.0000000
B2   B   0.443931822472896   0.053919105875549   0.375000000000000   1.0000000
B2   B   0.946080894124454   0.556068177527098   0.375000000000000   1.0000000
B2   B   0.778196877608808   0.055765105471067   0.375000000000000   1.0000000
B2   B   0.111098720309408   0.722216026821374   0.875000000000000   1.0000000
B2   B   0.444446273504847   0.722183770878309   0.875000000000000   1.0000000
B2   B   0.277879488896422   0.222286129071014   0.875000000000000   1.0000000
B2   B   0.777713870928992   0.722120511103580   0.875000000000000   1.0000000
B2   B   0.611073306841260   0.222286129071014   0.875000000000000   1.0000000
B2   B   0.944453841434429   0.222241016202186   0.875000000000000   1.0000000
B2   B   0.277505827648081   0.722494172351928   0.375000000000000   1.0000000
B2   B   0.109106829165732   0.221220081249531   0.375000000000000   1.0000000
B2   B   0.443194447752672   0.219722228838677   0.375000000000000   1.0000000
B2   B   0.611855266122273   0.728791698528320   0.375000000000000   1.0000000
B2   B   0.946080894124454   0.723346049930679   0.375000000000000   1.0000000
B2   B   0.778779918750458   0.221220081249531   0.375000000000000   1.0000000
B2   B   0.111114189735882   0.888885810264123   0.875000000000000   1.0000000
B2   B   0.444438287194903   0.888885810264123   0.875000000000000   1.0000000
B2   B   0.277879488896422   0.388926693158737   0.875000000000000   1.0000000
B2   B   0.611060724317150   0.388939275682862   0.875000000000000   1.0000000
B2   B   0.777743788038145   0.888820909409623   0.875000000000000   1.0000000
B2   B   0.944426426989374   0.388911579489820   0.875000000000000   1.0000000
B2   B   0.109122612922799   0.388527058125786   0.375000000000000   1.0000000
B2   B   0.277505827648081   0.888344988629491   0.375000000000000   1.0000000
B2   B   0.611472941874216   0.890877387077203   0.375000000000000   1.0000000
B2   B   0.421711857279713   0.377522595306522   0.375000000000000   1.0000000
B2   B   0.946071111869651   0.890877387077203   0.375000000000000   1.0000000
B2   B   0.783603099072712   0.388144733877724   0.375000000000000   1.0000000
B2   B   0.277816229121686   0.555553726495160   0.875000000000000   1.0000000
B2   B   0.111151819167128   0.055573573010638   0.875000000000000   1.0000000
B2   B   0.611060724317150   0.555454781967605   0.875000000000000   1.0000000
B2   B   0.444446273504847   0.055595835959873   0.875000000000000   1.0000000
B2   B   0.944404164040135   0.555553726495160   0.875000000000000   1.0000000
B2   B   0.111282221890315   0.555897777113951   0.375000000000000   1.0000000
B2   B   0.777758983797816   0.055546158565576   0.875000000000000   1.0000000
B2   B   0.276653950069318   0.053919105875549   0.375000000000000   1.0000000
B2   B   0.443194447752672   0.556805552247325   0.375000000000000   1.0000000
B2   B   0.780277771161320   0.556805552247325   0.375000000000000   1.0000000
B2   B   0.611472941874216   0.053928888130343   0.375000000000000   1.0000000
B2   B   0.444481386369230   0.555518613630772   0.875000000000000   1.0000000
B2   B   0.944234894528924   0.055765105471067   0.375000000000000   1.0000000
B2   B   0.277783973178632   0.722216026821374   0.875000000000000   1.0000000
B2   B   0.111179090590380   0.222256211961853   0.875000000000000   1.0000000
B2   B   0.444481386369230   0.222296106071793   0.875000000000000   1.0000000
B2   B   0.611073306841260   0.722120511103580   0.875000000000000   1.0000000
B2   B   0.944404164040135   0.722183770878309   0.875000000000000   1.0000000
B2   B   0.777743788038145   0.222256211961853   0.875000000000000   1.0000000
B2   B   0.111655011370516   0.722494172351928   0.375000000000000   1.0000000
B2   B   0.443931822472896   0.723346049930679   0.375000000000000   1.0000000
B2   B   0.271208301471686   0.216396900927290   0.375000000000000   1.0000000
B2   B   0.783603099072712   0.728791698528320   0.375000000000000   1.0000000
B2   B   0.611855266122273   0.216396900927290   0.375000000000000   1.0000000
B2   B   0.944234894528924   0.221803122391202   0.375000000000000   1.0000000
B2   B   0.111151819167128   0.388911579489820   0.875000000000000   1.0000000
B2   B   0.277783973178632   0.888901279690593   0.875000000000000   1.0000000
B2   B   0.611088420510183   0.888848180832867   0.875000000000000   1.0000000
B2   B   0.444545218032386   0.388939275682862   0.875000000000000   1.0000000
B2   B   0.944426426989374   0.888848180832867   0.875000000000000   1.0000000
B2   B   0.111282221890315   0.888717778109694   0.375000000000000   1.0000000
B2   B   0.777713870928992   0.388926693158737   0.875000000000000   1.0000000
B2   B   0.444102222886045   0.888717778109694   0.375000000000000   1.0000000
B2   B   0.271208301471685   0.388144733877724   0.375000000000000   1.0000000
B2   B   0.276653950069318   0.556068177527098   0.375000000000000   1.0000000
B2   B   0.622477404693478   0.377522595306522   0.375000000000000   1.0000000
B2   B   0.778779918750458   0.890893170834270   0.375000000000000   1.0000000
B2   B   0.946071111869651   0.388527058125786   0.375000000000000   1.0000000
B2   B   0.111114189735882   0.555561712805089   0.875000000000000   1.0000000
B2   B   0.277816229121686   0.055595835959873   0.875000000000000   1.0000000
B2   B   0.777703893928205   0.555518613630772   0.875000000000000   1.0000000
B2   B   0.611088420510183   0.055573573010638   0.875000000000000   1.0000000
B2   B   0.944453841434429   0.055546158565576   0.875000000000000   1.0000000
B2   B   0.055564296498337   0.111140412526262   0.125165728805141   1.0000000
B2   B   0.555694837513589   0.610933796627223   0.125360977033344   1.0000000
B2   B   0.389025539074914   0.111384411483159   0.125494794081814   1.0000000
B2   B   0.888615588516829   0.610974460925097   0.125494794081814   1.0000000
B2   B   0.722242782694581   0.111140412526262   0.125165728805141   1.0000000
B2   B   0.055456554957146   0.777741478778548   0.624965509283484   1.0000000
B2   B   0.388951590488057   0.777741478778548   0.624965509283484   1.0000000
B2   B   0.222295139721510   0.277814236527420   0.624638395125184   1.0000000
B2   B   0.722185763472578   0.777704860278496   0.624638395125184   1.0000000
B2   B   0.555694837513589   0.278094374219706   0.624639022966654   1.0000000
B2   B   0.888859587473734   0.277757217305408   0.624834271194860   1.0000000
B2   B   0.222222222222221   0.777777777777779   0.124968975279481   1.0000000
B2   B   0.055564296498337   0.277757217305408   0.125165728805141   1.0000000
B2   B   0.389066203372777   0.278094374219706   0.125360977033344   1.0000000
B2   B   0.555625901730718   0.777704418982299   0.125280396817924   1.0000000
B2   B   0.888745183918237   0.777704418982299   0.125280396817924   1.0000000
B2   B   0.722185763472578   0.277814236527420   0.125361604874817   1.0000000
B2   B   0.055530374785759   0.944469625214235   0.624946500111222   1.0000000
B2   B   0.388951590488057   0.944543445042851   0.624965509283484   1.0000000
B2   B   0.222295581017701   0.444374098269277   0.624719603182078   1.0000000
B2   B   0.555555555555557   0.444444444444443   0.621622348982982   1.0000000
B2   B   0.722242782694581   0.944435703501651   0.624834271194860   1.0000000
B2   B   0.888745183918237   0.444374098269277   0.624719603182078   1.0000000
B2   B   0.055530374785759   0.444394082904844   0.125053499888788   1.0000000
B2   B   0.222258521221458   0.944543445042851   0.125034490716522   1.0000000
B2   B   0.555605917095148   0.944469625214235   0.125053499888788   1.0000000
B2   B   0.389066203372777   0.444305162486406   0.125360977033344   1.0000000
B2   B   0.888859587473734   0.944435703501651   0.125165728805141   1.0000000
B2   B   0.721905625780301   0.444305162486406   0.125360977033344   1.0000000
B2   B   0.222258521221458   0.611048409511940   0.624965509283484   1.0000000
B2   B   0.055564296498337   0.111140412526262   0.624834271194860   1.0000000
B2   B   0.555694837513589   0.610933796627223   0.624639022966654   1.0000000
B2   B   0.389025539074914   0.111384411483159   0.624505205918190   1.0000000
B2   B   0.888615588516829   0.610974460925097   0.624505205918190   1.0000000
B2   B   0.055456554957146   0.611048409511940   0.125034490716522   1.0000000
B2   B   0.722242782694581   0.111140412526262   0.624834271194860   1.0000000
B2   B   0.222295581017701   0.111254816081757   0.125280396817924   1.0000000
B2   B   0.389025539074914   0.610974460925097   0.125494794081814   1.0000000
B2   B   0.721905625780301   0.610933796627223   0.125360977033344   1.0000000
B2   B   0.555625901730718   0.111254816081757   0.125280396817924   1.0000000
B2   B   0.389025539074914   0.610974460925097   0.624505205918190   1.0000000
B2   B   0.888888888888886   0.111111111111114   0.125106555073999   1.0000000
B2   B   0.222222222222221   0.777777777777779   0.625031024720526   1.0000000
B2   B   0.055564296498337   0.277757217305408   0.624834271194860   1.0000000
B2   B   0.389066203372777   0.278094374219706   0.624639022966654   1.0000000
B2   B   0.555625901730718   0.777704418982299   0.624719603182078   1.0000000
B2   B   0.888745183918237   0.777704418982299   0.624719603182078   1.0000000
B2   B   0.722185763472578   0.277814236527420   0.624638395125184   1.0000000
B2   B   0.055456554957146   0.777741478778548   0.125034490716522   1.0000000
B2   B   0.388951590488057   0.777741478778548   0.125034490716522   1.0000000
B2   B   0.222295139721510   0.277814236527420   0.125361604874817   1.0000000
B2   B   0.722185763472578   0.777704860278496   0.125361604874817   1.0000000
B2   B   0.555694837513589   0.278094374219706   0.125360977033344   1.0000000
B2   B   0.888859587473734   0.277757217305408   0.125165728805141   1.0000000
B2   B   0.055530374785759   0.444394082904844   0.624946500111222   1.0000000
B2   B   0.222258521221458   0.944543445042851   0.624965509283484   1.0000000
B2   B   0.555605917095148   0.944469625214235   0.624946500111222   1.0000000
B2   B   0.389066203372777   0.444305162486406   0.624639022966654   1.0000000
B2   B   0.888859587473734   0.944435703501651   0.624834271194860   1.0000000
B2   B   0.055530374785759   0.944469625214235   0.125053499888788   1.0000000
B2   B   0.721905625780301   0.444305162486406   0.624639022966654   1.0000000
B2   B   0.388951590488057   0.944543445042851   0.125034490716522   1.0000000
B2   B   0.222295581017701   0.444374098269277   0.125280396817924   1.0000000
B2   B   0.222258521221458   0.611048409511940   0.125034490716522   1.0000000
B2   B   0.555555555555557   0.444444444444443   0.128377651017011   1.0000000
B2   B   0.722242782694581   0.944435703501651   0.125165728805141   1.0000000
B2   B   0.888745183918237   0.444374098269277   0.125280396817924   1.0000000
B2   B   0.055456554957146   0.611048409511940   0.624965509283484   1.0000000
B2   B   0.222295581017701   0.111254816081757   0.624719603182078   1.0000000
B2   B   0.721905625780301   0.610933796627223   0.624639022966654   1.0000000
B2   B   0.555625901730718   0.111254816081757   0.624719603182078   1.0000000
B2   B   0.888888888888886   0.111111111111114   0.624893444926000   1.0000000


