data_1
_audit_creation_method   'vasp2cif'
_cell_length_a    14.93631414619966
_cell_length_b    14.936314146199727
_cell_length_c    13.341276283792837
_cell_angle_alpha    90.0
_cell_angle_beta    90.0
_cell_angle_gamma    119.99999999999984

_symmetry_space_group_name_H-M    'P 1'
loop_
_atom_site_label
_atom_site_type_symbol
_atom_site_fract_x
_atom_site_fract_y
_atom_site_fract_z
_atom_site_occupancy
Si2   Si   0.478375412825044   0.405854373079243   0.375000000000000   1.0000000
N2   N   0.111468922902444   0.055718878905177   0.124829555279675   1.0000000
N2   N   0.611449262646867   0.555758247685739   0.126809386008867   1.0000000
N2   N   0.444766206062718   0.055696930890436   0.124858447930570   1.0000000
N2   N   0.944757727337716   0.555722212793337   0.125088973142297   1.0000000
N2   N   0.778123400636816   0.055728366985067   0.124913242125360   1.0000000
N2   N   0.111428542812089   0.722380938072790   0.624934388797770   1.0000000
N2   N   0.444766206062718   0.722402608505532   0.625141552069634   1.0000000
N2   N   0.278180088443649   0.222406063741688   0.623632696720713   1.0000000
N2   N   0.778107260988999   0.722382153137343   0.624806243502680   1.0000000
N2   N   0.611433925534539   0.222364763786684   0.624833771585925   1.0000000
N2   N   0.944810858116081   0.222411393017878   0.625136291372405   1.0000000
N2   N   0.278096338512153   0.722389788667613   0.124874241655269   1.0000000
N2   N   0.111518133323343   0.222425733328310   0.125124232606974   1.0000000
N2   N   0.444780883129452   0.222363564473937   0.126483069150125   1.0000000
N2   N   0.611433925534539   0.722402495081522   0.125166228414163   1.0000000
N2   N   0.944757727337716   0.722368847877422   0.125088973142297   1.0000000
N2   N   0.778116282702724   0.222397318524741   0.124853216246919   1.0000000
N2   N   0.111432595203503   0.889034386707339   0.625109915908706   1.0000000
N2   N   0.444764029628814   0.889048681480923   0.625214867043452   1.0000000
N2   N   0.278180088443649   0.389107358035165   0.623632696720713   1.0000000
N2   N   0.611449262646867   0.389024348294427   0.623190613991136   1.0000000
N2   N   0.778116282702724   0.889052297511524   0.625146783753197   1.0000000
N2   N   0.944783269359707   0.389071678315824   0.625201865526925   1.0000000
N2   N   0.111468922902453   0.389083377330611   0.124829555279675   1.0000000
N2   N   0.278096338512153   0.889039883177683   0.124874241655269   1.0000000
N2   N   0.611439544479098   0.889060916397915   0.124810854539221   1.0000000
N2   N   0.444929889435340   0.389131611384340   0.131466484499617   1.0000000
N2   N   0.944783269359707   0.889044924377268   0.124798134473204   1.0000000
N2   N   0.778107260989032   0.389058441184815   0.125193756497133   1.0000000
N2   N   0.278108741842469   0.555742924295402   0.624932461741287   1.0000000
N2   N   0.111468922902453   0.055718878905177   0.625170444720425   1.0000000
N2   N   0.611449262646867   0.555758247685739   0.623190613991110   1.0000000
N2   N   0.444766206062718   0.055696930890436   0.625141552069634   1.0000000
N2   N   0.944757727337716   0.555722212793337   0.624911026857608   1.0000000
N2   N   0.111432595203503   0.555731541829485   0.124890084091357   1.0000000
N2   N   0.778123400636816   0.055728366985066   0.625086757874438   1.0000000
N2   N   0.278108741842469   0.055699150880478   0.125067538258661   1.0000000
N2   N   0.444780883129452   0.555750651988722   0.126483069150128   1.0000000
N2   N   0.778070902548110   0.555702117940548   0.125683444499131   1.0000000
N2   N   0.611439544479098   0.055711961414380   0.124810854539221   1.0000000
N2   N   0.444780883129452   0.555750651988722   0.623516930849753   1.0000000
N2   N   0.944810858116081   0.055732798431673   0.124863708627565   1.0000000
N2   N   0.278096338512153   0.722389788667613   0.625125758344735   1.0000000
N2   N   0.111518133323343   0.222425733328310   0.624875767393206   1.0000000
N2   N   0.444780883129452   0.222363564473937   0.623516930849753   1.0000000
N2   N   0.611433925534539   0.722402495081522   0.624833771585925   1.0000000
N2   N   0.944757727337716   0.722368847877422   0.624911026857608   1.0000000
N2   N   0.778116282702724   0.222397318524741   0.625146783753197   1.0000000
N2   N   0.111428542812089   0.722380938072790   0.125065611202330   1.0000000
N2   N   0.444766206062718   0.722402608505532   0.124858447930570   1.0000000
N2   N   0.278180088443649   0.222406063741688   0.126367303279374   1.0000000
N2   N   0.778107260989032   0.722382153137343   0.125193756497133   1.0000000
N2   N   0.611433925534539   0.222364763786684   0.125166228414162   1.0000000
N2   N   0.944810858116081   0.222411393017878   0.124863708627565   1.0000000
N2   N   0.111468922902453   0.389083377330611   0.625170444720425   1.0000000
N2   N   0.278096338512153   0.889039883177683   0.625125758344735   1.0000000
N2   N   0.611439544479098   0.889060916397915   0.625189145460518   1.0000000
N2   N   0.444929889435340   0.389131611384340   0.618533515500500   1.0000000
N2   N   0.944783269359707   0.889044924377268   0.625201865526925   1.0000000
N2   N   0.111432595203503   0.889034386707339   0.124890084091357   1.0000000
N2   N   0.778107260989032   0.389058441184815   0.624806243502680   1.0000000
N2   N   0.444764029628814   0.889048681480923   0.124785132956751   1.0000000
N2   N   0.278180088443649   0.389107358035165   0.126367303279377   1.0000000
N2   N   0.278108741842469   0.555742924295402   0.125067538258660   1.0000000
N2   N   0.611449262646867   0.389024348294427   0.126809386008853   1.0000000
N2   N   0.778116282702724   0.889052297511524   0.124853216246930   1.0000000
N2   N   0.944783269359707   0.389071678315824   0.124798134473205   1.0000000
N2   N   0.111432595203503   0.555731541829485   0.625109915908706   1.0000000
N2   N   0.278108741842469   0.055699150880478   0.624932461741287   1.0000000
N2   N   0.778070902548110   0.555702117940548   0.624316555500965   1.0000000
N2   N   0.611439544479098   0.055711961414380   0.625189145460518   1.0000000
N2   N   0.944810858116081   0.055732798431673   0.625136291372405   1.0000000
N2   N   0.057906257058336   0.112512543055563   0.375000000000000   1.0000000
N2   N   0.555285602857867   0.617726500158363   0.375000000000000   1.0000000
N2   N   0.388123909821971   0.107293970186320   0.375000000000000   1.0000000
N2   N   0.884933497891840   0.609133415612781   0.375000000000000   1.0000000
N2   N   0.723495448700002   0.111084124900194   0.375000000000000   1.0000000
N2   N   0.055890178539391   0.777945383303627   0.875000000000000   1.0000000
N2   N   0.389239469055895   0.777953472406251   0.875000000000000   1.0000000
N2   N   0.222566459532388   0.277949896432718   0.875000000000000   1.0000000
N2   N   0.722563766227874   0.777949346643018   0.875000000000000   1.0000000
N2   N   0.555895021954865   0.277948997589725   0.875000000000000   1.0000000
N2   N   0.889228599435473   0.277948613437359   0.875000000000000   1.0000000
N2   N   0.220454973431271   0.776894153382249   0.375000000000000   1.0000000
N2   N   0.057906257058336   0.278727047336158   0.375000000000000   1.0000000
N2   N   0.393454988239574   0.276125968088154   0.375000000000000   1.0000000
N2   N   0.555676419947964   0.780817852486092   0.375000000000000   1.0000000
N2   N   0.887422026756592   0.777275299504383   0.375000000000000   1.0000000
N2   N   0.722844890864200   0.276398086906166   0.375000000000000   1.0000000
N2   N   0.055891434039275   0.944612418193646   0.875000000000000   1.0000000
N2   N   0.389239469055895   0.944619329983076   0.875000000000000   1.0000000
N2   N   0.222562782305325   0.444610115124972   0.875000000000000   1.0000000
N2   N   0.555884127416186   0.444608730374757   0.875000000000000   1.0000000
N2   N   0.722566015873503   0.944616226118345   0.875000000000000   1.0000000
N2   N   0.889224463993303   0.444612609362088   0.875000000000000   1.0000000
N2   N   0.055670710491984   0.444443761631287   0.375000000000000   1.0000000
N2   N   0.220944012262025   0.943066638938071   0.375000000000000   1.0000000
N2   N   0.555712900926128   0.944523117129739   0.375000000000000   1.0000000
N2   N   0.393454988239574   0.450662353484679   0.375000000000000   1.0000000
N2   N   0.890245262480315   0.945683082019179   0.375000000000000   1.0000000
N2   N   0.717823583048511   0.441587195742689   0.375000000000000   1.0000000
N2   N   0.222564038383522   0.611280520752068   0.875000000000000   1.0000000
N2   N   0.055890649395774   0.111279290076356   0.875000000000000   1.0000000
N2   N   0.555895021954865   0.611279357698417   0.875000000000000   1.0000000
N2   N   0.389234811797046   0.111290140214252   0.875000000000000   1.0000000
N2   N   0.889216790046998   0.611275061690216   0.875000000000000   1.0000000
N2   N   0.053306021831342   0.610176966664904   0.375000000000000   1.0000000
N2   N   0.722566015873503   0.111283123088913   0.875000000000000   1.0000000
N2   N   0.223954901636529   0.111760238104273   0.375000000000000   1.0000000
N2   N   0.388123909821971   0.614163272969154   0.375000000000000   1.0000000
N2   N   0.717823583048545   0.609569720639343   0.375000000000000   1.0000000
N2   N   0.555676419947964   0.108191900795188   0.375000000000000   1.0000000
N2   N   0.389234811797046   0.611278004916218   0.875000000000000   1.0000000
N2   N   0.890868662309040   0.112100997821145   0.375000000000000   1.0000000
N2   N   0.222564769077643   0.777949051205622   0.875000000000000   1.0000000
N2   N   0.055890649395774   0.277944692652609   0.875000000000000   1.0000000
N2   N   0.389239529644824   0.277964082445599   0.875000000000000   1.0000000
N2   N   0.555901069716135   0.777951208493440   0.875000000000000   1.0000000
N2   N   0.889224463993303   0.777945187964446   0.875000000000000   1.0000000
N2   N   0.722563766227874   0.277947752918299   0.875000000000000   1.0000000
N2   N   0.053306021831340   0.776462388499593   0.375000000000000   1.0000000
N2   N   0.387925346928323   0.778400501257447   0.375000000000000   1.0000000
N2   N   0.226286165457817   0.279809749395505   0.375000000000000   1.0000000
N2   N   0.722844890864200   0.779780137291507   0.375000000000000   1.0000000
N2   N   0.555285602857866   0.270892436032895   0.375000000000000   1.0000000
N2   N   0.890245262480315   0.277895513794784   0.375000000000000   1.0000000
N2   N   0.055891434039275   0.444612349178820   0.875000000000000   1.0000000
N2   N   0.222564038383522   0.944616850964532   0.875000000000000   1.0000000
N2   N   0.555906088905861   0.944619711119770   0.875000000000000   1.0000000
N2   N   0.389239529644833   0.444608780532745   0.875000000000000   1.0000000
N2   N   0.889228599435473   0.944613319331341   0.875000000000000   1.0000000
N2   N   0.055670710491984   0.944560282194156   0.375000000000000   1.0000000
N2   N   0.722550869309226   0.444608000509244   0.875000000000000   1.0000000
N2   N   0.387925346928323   0.942858179004338   0.375000000000000   1.0000000
N2   N   0.223954901636529   0.445527996865565   0.375000000000000   1.0000000
N2   N   0.220944012262019   0.611210706657582   0.375000000000000   1.0000000
N2   N   0.723495448700002   0.945744657133285   0.375000000000000   1.0000000
N2   N   0.887422026756592   0.443480060585415   0.375000000000000   1.0000000
N2   N   0.055890178539393   0.611278128568787   0.875000000000000   1.0000000
N2   N   0.222562782305331   0.111286000513588   0.875000000000000   1.0000000
N2   N   0.722550869309226   0.611276202133169   0.875000000000000   1.0000000
N2   N   0.555901069716135   0.111283194555938   0.875000000000000   1.0000000
N2   N   0.889225791130957   0.111279562232168   0.875000000000000   1.0000000
B2   B   0.112318009959296   0.056022852438408   0.375000000000000   1.0000000
B2   B   0.609022764067053   0.563949222458383   0.375000000000000   1.0000000
B2   B   0.444415753117666   0.052768927645149   0.375000000000000   1.0000000
B2   B   0.942174999412834   0.554516250518152   0.375000000000000   1.0000000
B2   B   0.779742245381162   0.056537789357223   0.375000000000000   1.0000000
B2   B   0.111455685490022   0.722394509411797   0.875000000000000   1.0000000
B2   B   0.444789587217623   0.722427229637990   0.875000000000000   1.0000000
B2   B   0.278060472587319   0.222351261468273   0.875000000000000   1.0000000
B2   B   0.778153619089405   0.722444113042750   0.875000000000000   1.0000000
B2   B   0.611477401142417   0.222353848446692   0.875000000000000   1.0000000
B2   B   0.944766886311033   0.222375855735119   0.875000000000000   1.0000000
B2   B   0.276585543096193   0.722222765732699   0.375000000000000   1.0000000
B2   B   0.113974828833224   0.223654081083247   0.375000000000000   1.0000000
B2   B   0.443996149003473   0.215971169334251   0.375000000000000   1.0000000
B2   B   0.612584495678958   0.728268380090080   0.375000000000000   1.0000000
B2   B   0.942174999412834   0.720992082227849   0.375000000000000   1.0000000
B2   B   0.779463839439417   0.221771419738193   0.375000000000000   1.0000000
B2   B   0.111441484499763   0.889051354508226   0.875000000000000   1.0000000
B2   B   0.444801718127441   0.889067525730264   0.875000000000000   1.0000000
B2   B   0.278060472587319   0.389042544452334   0.875000000000000   1.0000000
B2   B   0.611484015824180   0.389032094234860   0.875000000000000   1.0000000
B2   B   0.778137342622020   0.889097581696147   0.875000000000000   1.0000000
B2   B   0.944788167651828   0.389046519794434   0.875000000000000   1.0000000
B2   B   0.112318009959296   0.389628490854266   0.375000000000000   1.0000000
B2   B   0.276585543096193   0.887696110696845   0.375000000000000   1.0000000
B2   B   0.612345574689574   0.891087205848992   0.375000000000000   1.0000000
B2   B   0.944513526691205   0.889135857732399   0.375000000000000   1.0000000
B2   B   0.776674329118816   0.387115890721056   0.375000000000000   1.0000000
B2   B   0.278091261850746   0.555733772719047   0.875000000000000   1.0000000
B2   B   0.111413626482695   0.055704221316517   0.875000000000000   1.0000000
B2   B   0.611484015824180   0.555785254922797   0.875000000000000   1.0000000
B2   B   0.444789587217622   0.055695690913113   0.875000000000000   1.0000000
B2   B   0.944805882095709   0.555728094901657   0.875000000000000   1.0000000
B2   B   0.109791598277426   0.555362414293333   0.375000000000000   1.0000000
B2   B   0.778126144531666   0.055729738932432   0.875000000000000   1.0000000
B2   B   0.276961148026912   0.053640419133225   0.375000000000000   1.0000000
B2   B   0.443996149003473   0.561358313002711   0.375000000000000   1.0000000
B2   B   0.773933986992064   0.553633660162756   0.375000000000000   1.0000000
B2   B   0.612345574689574   0.054591702174158   0.375000000000000   1.0000000
B2   B   0.444772783211585   0.555761917326847   0.875000000000000   1.0000000
B2   B   0.946559538795697   0.056900687052521   0.375000000000000   1.0000000
B2   B   0.278118021727069   0.722402897017184   0.875000000000000   1.0000000
B2   B   0.111401647032208   0.222367490182780   0.875000000000000   1.0000000
B2   B   0.444772783211585   0.222344199218019   0.875000000000000   1.0000000
B2   B   0.611477401142417   0.722456886029034   0.875000000000000   1.0000000
B2   B   0.944805882095709   0.722411120527541   0.875000000000000   1.0000000
B2   B   0.778137342622020   0.222373094258882   0.875000000000000   1.0000000
B2   B   0.109202899512341   0.721268116422752   0.375000000000000   1.0000000
B2   B   0.444415753117666   0.724980158805787   0.375000000000000   1.0000000
B2   B   0.280626301748126   0.223061326437421   0.375000000000000   1.0000000
B2   B   0.776674329118816   0.722891771731159   0.375000000000000   1.0000000
B2   B   0.612584495678958   0.217649448922055   0.375000000000000   1.0000000
B2   B   0.946559538795697   0.222992185076605   0.375000000000000   1.0000000
B2   B   0.111413626482682   0.389042738499441   0.875000000000000   1.0000000
B2   B   0.278118021727069   0.889048458043340   0.875000000000000   1.0000000
B2   B   0.611472776727127   0.889089735468294   0.875000000000000   1.0000000
B2   B   0.444750804910591   0.389042069121934   0.875000000000000   1.0000000
B2   B   0.944788167651828   0.889074981190629   0.875000000000000   1.0000000
B2   B   0.109791598277424   0.887762517317557   0.375000000000000   1.0000000
B2   B   0.778153619089405   0.389042839379853   0.875000000000000   1.0000000
B2   B   0.444361787086563   0.888847560209696   0.375000000000000   1.0000000
B2   B   0.280626301748126   0.390898308644060   0.375000000000000   1.0000000
B2   B   0.276961148026912   0.556654062227079   0.375000000000000   1.0000000
B2   B   0.609022764067053   0.378406874942135   0.375000000000000   1.0000000
B2   B   0.779463839439417   0.891025753034759   0.375000000000000   1.0000000
B2   B   0.944513526691205   0.388711002291897   0.375000000000000   1.0000000
B2   B   0.111441484499761   0.555723463324814   0.875000000000000   1.0000000
B2   B   0.278091261850746   0.055690822464953   0.875000000000000   1.0000000
B2   B   0.778156872106407   0.555745102719807   0.875000000000000   1.0000000
B2   B   0.611472776727127   0.055716374592127   0.875000000000000   1.0000000
B2   B   0.944766886311033   0.055724363909117   0.875000000000000   1.0000000
B2   B   0.055875936400869   0.111249745943105   0.124738546912993   1.0000000
B2   B   0.555889411225661   0.611494663885763   0.125663126036898   1.0000000
B2   B   0.389110403586216   0.111030133456712   0.125034749388339   1.0000000
B2   B   0.889359427007959   0.611346380170620   0.124979307819604   1.0000000
B2   B   0.722567757393483   0.111250486734320   0.124682173328973   1.0000000
B2   B   0.055924831358757   0.777944742791301   0.625161858615809   1.0000000
B2   B   0.389161160901226   0.777978316894508   0.625390196244889   1.0000000
B2   B   0.222475361971577   0.277904347652491   0.624278808223407   1.0000000
B2   B   0.722620624844766   0.778058859916364   0.625238211226298   1.0000000
B2   B   0.555889411225661   0.277728080672956   0.624336873963156   1.0000000
B2   B   0.889262552975098   0.277953638604795   0.625355718504389   1.0000000
B2   B   0.222524190321740   0.777928761827606   0.124776295382446   1.0000000
B2   B   0.055875936400870   0.277959523791119   0.124738546912993   1.0000000
B2   B   0.389028878231446   0.277567282711144   0.127628104710495   1.0000000
B2   B   0.555864175808872   0.778048483634286   0.124665263140731   1.0000000
B2   B   0.889323304207541   0.778012712938184   0.124766116679932   1.0000000
B2   B   0.722620624844766   0.277895098261750   0.124761788773850   1.0000000
B2   B   0.055890194850587   0.944577032088714   0.625375165335704   1.0000000
B2   B   0.389161160901226   0.944516177340171   0.625390196244889   1.0000000
B2   B   0.222468664079487   0.444675566011139   0.624936001169117   1.0000000
B2   B   0.556216458756523   0.444774896044926   0.622781767688930   1.0000000
B2   B   0.722567757393483   0.944650603992480   0.625317826670980   1.0000000
B2   B   0.889323304207541   0.444643924602406   0.625233883320163   1.0000000
B2   B   0.055890194850587   0.444646496095317   0.124624834664407   1.0000000
B2   B   0.222497545593980   0.944502409239648   0.124707360731342   1.0000000
B2   B   0.555860500193966   0.944596916763730   0.124612727482681   1.0000000
B2   B   0.389028878231446   0.444794928853665   0.127628104710496   1.0000000
B2   B   0.889262552975098   0.944642247703686   0.124644281495550   1.0000000
B2   B   0.722776841754083   0.444657727471242   0.125362724592968   1.0000000
B2   B   0.222497545593984   0.611328469687773   0.625292639268745   1.0000000
B2   B   0.055875936400870   0.111249745943108   0.625261453086987   1.0000000
B2   B   0.555889411225661   0.611494663885763   0.624336873963156   1.0000000
B2   B   0.389110403586216   0.111030133456712   0.624965250611469   1.0000000
B2   B   0.889359427007959   0.611346380170620   0.625020692180313   1.0000000
B2   B   0.055924831358757   0.611313421900665   0.124838141384252   1.0000000
B2   B   0.722567757393483   0.111250486734320   0.625317826670980   1.0000000
B2   B   0.222468664079487   0.111126431401695   0.125063998830786   1.0000000
B2   B   0.389110403586216   0.611413603462686   0.125034749388339   1.0000000
B2   B   0.722776841754083   0.611452447615976   0.125362724592968   1.0000000
B2   B   0.555864175808872   0.111149025508134   0.124665263140731   1.0000000
B2   B   0.389110403586216   0.611413603462686   0.624965250611469   1.0000000
B2   B   0.889237447955432   0.111285390644394   0.124743357375571   1.0000000
B2   B   0.222524190321740   0.777928761827606   0.625223704617505   1.0000000
B2   B   0.055875936400869   0.277959523791119   0.625261453086987   1.0000000
B2   B   0.389028878231446   0.277567282711144   0.622371895289310   1.0000000
B2   B   0.555864175808872   0.778048483634286   0.625334736859256   1.0000000
B2   B   0.889323304207541   0.778012712938184   0.625233883320163   1.0000000
B2   B   0.722620624844766   0.277895098261750   0.625238211226298   1.0000000
B2   B   0.055924831358757   0.777944742791301   0.124838141384252   1.0000000
B2   B   0.389161160901226   0.777978316894508   0.124609803755161   1.0000000
B2   B   0.222475361971577   0.277904347652491   0.125721191776606   1.0000000
B2   B   0.722620624844766   0.778058859916364   0.124761788773850   1.0000000
B2   B   0.555889411225661   0.277728080672956   0.125663126036898   1.0000000
B2   B   0.889262552975098   0.277953638604795   0.124644281495550   1.0000000
B2   B   0.055890194850585   0.444646496095260   0.625375165335704   1.0000000
B2   B   0.222497545593984   0.944502409239648   0.625292639268745   1.0000000
B2   B   0.555860500193966   0.944596916763730   0.625387272517416   1.0000000
B2   B   0.389028878231446   0.444794928853665   0.622371895289310   1.0000000
B2   B   0.889262552975098   0.944642247703702   0.625355718504389   1.0000000
B2   B   0.055890194850585   0.944577032088714   0.124624834664407   1.0000000
B2   B   0.722776841754083   0.444657727471242   0.624637275407174   1.0000000
B2   B   0.389161160901226   0.944516177340171   0.124609803755161   1.0000000
B2   B   0.222468664079487   0.444675566011139   0.125063998830770   1.0000000
B2   B   0.222497545593980   0.611328469687773   0.124707360731342   1.0000000
B2   B   0.556216458756523   0.444774896044926   0.127218232311076   1.0000000
B2   B   0.722567757393483   0.944650603992480   0.124682173328973   1.0000000
B2   B   0.889323304207541   0.444643924602406   0.124766116679932   1.0000000
B2   B   0.055924831358757   0.611313421900665   0.625161858615809   1.0000000
B2   B   0.222468664079487   0.111126431401695   0.624936001169116   1.0000000
B2   B   0.722776841754083   0.611452447615922   0.624637275407174   1.0000000
B2   B   0.555864175808872   0.111149025508134   0.625334736859256   1.0000000
B2   B   0.889237447955432   0.111285390644394   0.625256642624454   1.0000000


