data_1
_audit_creation_method   'vasp2cif'
_cell_length_a    17.52789999999977
_cell_length_b    17.52789999999977
_cell_length_c    15.0
_cell_angle_alpha    90.0
_cell_angle_beta    90.0
_cell_angle_gamma    119.99999999999916

_symmetry_space_group_name_H-M    'P 1'
loop_
_atom_site_label
_atom_site_type_symbol
_atom_site_fract_x
_atom_site_fract_y
_atom_site_fract_z
_atom_site_occupancy
B2   B   0.905085523895185   0.953058021249967   0.110988455154436   1.0000000
B2   B   0.904624083913293   0.095377937282702   0.111041363449367   1.0000000
B2   B   0.904624083913293   0.237817452956591   0.111041363449367   1.0000000
B2   B   0.905085523895185   0.380600520527220   0.110988455154436   1.0000000
B2   B   0.906441833082980   0.523809579132225   0.111123340321192   1.0000000
B2   B   0.906152860812809   0.667362939347906   0.111133082951474   1.0000000
B2   B   0.906441833082980   0.811205271833754   0.111123340321199   1.0000000
B2   B   0.047533043659499   0.952468977536505   0.110914678352153   1.0000000
B2   B   0.046943999946036   0.094916497300811   0.110988455154436   1.0000000
B2   B   0.046731697931552   0.237652357906780   0.111020190447523   1.0000000
B2   B   0.046943999946036   0.380600520527220   0.110988455154436   1.0000000
B2   B   0.047533043659499   0.523638795561995   0.110914678352153   1.0000000
B2   B   0.048069543356130   0.666869105232804   0.111033754174014   1.0000000
B2   B   0.048069543356130   0.809775167562327   0.111033754174014   1.0000000
B2   B   0.190226853633679   0.951932477839864   0.111033754174014   1.0000000
B2   B   0.188796749362250   0.093560188113020   0.111123340321199   1.0000000
B2   B   0.188656820914030   0.236910674727664   0.111114101684854   1.0000000
B2   B   0.188656820914030   0.380319164068366   0.111114101684854   1.0000000
B2   B   0.188796749362250   0.523809579132225   0.111123340321192   1.0000000
B2   B   0.190226853633679   0.666869105232804   0.111033754174014   1.0000000
B2   B   0.190476437651000   0.809525583545003   0.111113926023436   1.0000000
B2   B   0.333132915964195   0.951932477839872   0.111033754174014   1.0000000
B2   B   0.332639081849092   0.093849160383191   0.111133082951474   1.0000000
B2   B   0.329329687347453   0.233722458703539   0.111097136620281   1.0000000
B2   B   0.330249199249977   0.379411108565484   0.110806565543485   1.0000000
B2   B   0.329329687347453   0.524180246525914   0.111097136620281   1.0000000
B2   B   0.332639081849092   0.667362939347906   0.111133082951474   1.0000000
B2   B   0.333132915964195   0.809775167562327   0.111033754174014   1.0000000
B2   B   0.476363225635006   0.952468977536505   0.110914678352153   1.0000000
B2   B   0.476192442064771   0.093560188113020   0.111123340321192   1.0000000
B2   B   0.475821774671082   0.233722458703539   0.111097136620281   1.0000000
B2   B   0.467866558441961   0.364304113568922   0.110719348134814   1.0000000
B2   B   0.467866558441961   0.532135462755037   0.110719348134814   1.0000000
B2   B   0.475821774671082   0.670672333849544   0.111097136620281   1.0000000
B2   B   0.476192442064771   0.811205271833754   0.111123340321192   1.0000000
B2   B   0.619401500668782   0.953058021249967   0.110988455154436   1.0000000
B2   B   0.619401500668782   0.094916497300811   0.110988455154436   1.0000000
B2   B   0.619682857127637   0.236910674727664   0.111114101684854   1.0000000
B2   B   0.620590912630518   0.379411108565484   0.110806565543485   1.0000000
B2   B   0.635697907627084   0.532135462755037   0.110719348134814   1.0000000
B2   B   0.620590912630518   0.669752821947023   0.110806565543485   1.0000000
B2   B   0.619682857127637   0.811345200281979   0.111114101684854   1.0000000
B2   B   0.762349663289223   0.953270323264451   0.111020190447523   1.0000000
B2   B   0.762184568239416   0.095377937282702   0.111041363449367   1.0000000
B2   B   0.762349663289223   0.237652357906780   0.111020190447523   1.0000000
B2   B   0.763091346468336   0.380319164068366   0.111114101684854   1.0000000
B2   B   0.766279562492462   0.524180246525914   0.111097136620281   1.0000000
B2   B   0.766279562492462   0.670672333849544   0.111097136620281   1.0000000
B2   B   0.763091346468336   0.811345200281979   0.111114101684854   1.0000000
N2   N   0.953135584463161   0.905637836324691   0.110921750652363   1.0000000
N2   N   0.952253257229609   0.047748144688398   0.110978450470570   1.0000000
N2   N   0.952027738751779   0.190298666752387   0.111030768204184   1.0000000
N2   N   0.952253257229609   0.333074707294218   0.110978450470570   1.0000000
N2   N   0.953135584463162   0.476069054447467   0.110921750652363   1.0000000
N2   N   0.953505359224800   0.619416159900367   0.111025532207342   1.0000000
N2   N   0.953505359224800   0.762660505634433   0.111025532207342   1.0000000
N2   N   0.095326290129445   0.904675111788553   0.110959366278006   1.0000000
N2   N   0.094363565593307   0.046865817454844   0.110921750652363   1.0000000
N2   N   0.094093595639101   0.189812902016237   0.111016590126000   1.0000000
N2   N   0.094093595639101   0.332851999931859   0.111016590126000   1.0000000
N2   N   0.094363565593307   0.476069054447467   0.110921750652363   1.0000000
N2   N   0.095326290129445   0.619224196206891   0.110959366278006   1.0000000
N2   N   0.095613633491015   0.762093325678511   0.111098592641303   1.0000000
N2   N   0.237908076239494   0.904387768426976   0.111098592641303   1.0000000
N2   N   0.237340896283570   0.046496042693204   0.111025532207342   1.0000000
N2   N   0.235134813451714   0.187797731244492   0.111308724062306   1.0000000
N2   N   0.235795510922654   0.332183408615823   0.110959220414944   1.0000000
N2   N   0.235134813451714   0.475908388516218   0.111308724062306   1.0000000
N2   N   0.237340896283570   0.619416159900367   0.111025532207342   1.0000000
N2   N   0.237908076239494   0.762093325678511   0.111098592641303   1.0000000
N2   N   0.380777205711107   0.904675111788553   0.110959366278006   1.0000000
N2   N   0.380585242017633   0.046496042693204   0.111025532207342   1.0000000
N2   N   0.379806619343123   0.188183143078241   0.111153075729814   1.0000000
N2   N   0.374729510597121   0.327612085443316   0.110758163365503   1.0000000
N2   N   0.374729510597121   0.475688731462803   0.110758163365503   1.0000000
N2   N   0.379806619343123   0.620194782574875   0.111153075729814   1.0000000
N2   N   0.380585242017633   0.762660505634433   0.111025532207342   1.0000000
N2   N   0.523932347469531   0.905637836324691   0.110921750652363   1.0000000
N2   N   0.523932347469531   0.046865817454844   0.110921750652363   1.0000000
N2   N   0.524093013400780   0.187797731244492   0.111308724062306   1.0000000
N2   N   0.524312670454191   0.327612085443316   0.110758163365503   1.0000000
N2   N   0.524312670454191   0.625271891320884   0.110758163365503   1.0000000
N2   N   0.524093013400780   0.764866588466289   0.111308724062306   1.0000000
N2   N   0.667149401985136   0.905907806278902   0.111016590126000   1.0000000
N2   N   0.666926694622779   0.047748144688398   0.110978450470570   1.0000000
N2   N   0.667149401985136   0.189812902016237   0.111016590126000   1.0000000
N2   N   0.667817993301169   0.332183408615823   0.110959220414944   1.0000000
N2   N   0.672389316473683   0.475688731462803   0.110758163365503   1.0000000
N2   N   0.672389316473683   0.625271891320884   0.110758163365503   1.0000000
N2   N   0.667817993301169   0.764205890995355   0.110959220414944   1.0000000
N2   N   0.810188499901760   0.905907806278902   0.111016590126000   1.0000000
N2   N   0.809702735165611   0.047973663166231   0.111030768204184   1.0000000
N2   N   0.809702735165611   0.190298666752387   0.111030768204184   1.0000000
N2   N   0.810188499901760   0.332851999931859   0.111016590126000   1.0000000
N2   N   0.812203670673506   0.475908388516217   0.111308724062306   1.0000000
N2   N   0.811818258839760   0.620194782574875   0.111153075729814   1.0000000
N2   N   0.812203670673506   0.764866588466289   0.111308724062306   1.0000000
S2   S   0.523810499174999   0.476190902741997   0.111076675913891   1.0000000


