data_1
_audit_creation_method   'vasp2cif'
_cell_length_a    17.52789999999977
_cell_length_b    17.52789999999977
_cell_length_c    15.0
_cell_angle_alpha    90.0
_cell_angle_beta    90.0
_cell_angle_gamma    119.99999999999916

_symmetry_space_group_name_H-M    'P 1'
loop_
_atom_site_label
_atom_site_type_symbol
_atom_site_fract_x
_atom_site_fract_y
_atom_site_fract_z
_atom_site_occupancy
In2   In   0.413867722873165   0.475423883978437   0.111551288592335   1.0000000
B2   B   0.909433537881975   0.955983615603286   0.110650937269921   1.0000000
B2   B   0.907101515581013   0.098092646649274   0.110684118784381   1.0000000
B2   B   0.905828866008419   0.240439864561782   0.110673484246460   1.0000000
B2   B   0.904396974913226   0.382376243092943   0.110582188401136   1.0000000
B2   B   0.903031357745948   0.524231501160240   0.110569739225747   1.0000000
B2   B   0.907226645343780   0.667235269623355   0.110750192720329   1.0000000
B2   B   0.910994469909304   0.813256814521708   0.110759519632659   1.0000000
B2   B   0.049192461523610   0.950266258127228   0.110566011999356   1.0000000
B2   B   0.047329801814238   0.092841936654646   0.110663840650765   1.0000000
B2   B   0.048240317711701   0.238150337389259   0.110647125966103   1.0000000
B2   B   0.048559287916823   0.381361037900723   0.110636653764535   1.0000000
B2   B   0.047776894087969   0.523450627825400   0.110604020407846   1.0000000
B2   B   0.049164174764984   0.665314372273752   0.110585263793420   1.0000000
B2   B   0.049728218808312   0.807683258512150   0.110547235643974   1.0000000
B2   B   0.190863112175458   0.947300042238969   0.110587544406655   1.0000000
B2   B   0.187099910017939   0.086432711851189   0.110638043849734   1.0000000
B2   B   0.185109768847676   0.228764921370242   0.110593826787104   1.0000000
B2   B   0.192051389860335   0.379457847911342   0.110502446992028   1.0000000
B2   B   0.191732741176195   0.523229680530286   0.110658123001006   1.0000000
B2   B   0.193012900586636   0.665296501350847   0.110654961570994   1.0000000
B2   B   0.192302854396037   0.806596765683982   0.110561376911841   1.0000000
B2   B   0.334746341895627   0.948219682107240   0.110617677997226   1.0000000
B2   B   0.332202265234759   0.085804038744221   0.110668715053170   1.0000000
B2   B   0.324712273502170   0.216685533167586   0.111136668622029   1.0000000
B2   B   0.320667532297102   0.349955942959312   0.110804410928915   1.0000000
B2   B   0.335104363211430   0.531378477371870   0.111090224410069   1.0000000
B2   B   0.338382122390718   0.669700371179764   0.110774673916321   1.0000000
B2   B   0.336426944429922   0.808827788095199   0.110591530928986   1.0000000
B2   B   0.479047009406480   0.952058298612741   0.110613051266757   1.0000000
B2   B   0.477237504788845   0.092960168283509   0.110688611633836   1.0000000
B2   B   0.474004589045135   0.232572679179370   0.110758403019387   1.0000000
B2   B   0.461450987858711   0.364101950680855   0.110999187068397   1.0000000
B2   B   0.485636831513897   0.667955523115525   0.111261044386805   1.0000000
B2   B   0.481255981741204   0.810547317457464   0.110695657567890   1.0000000
B2   B   0.622818927430193   0.956640775042133   0.110638571016632   1.0000000
B2   B   0.620982712511677   0.097964508891883   0.110561389631834   1.0000000
B2   B   0.618834753881551   0.240480262615351   0.110662624429115   1.0000000
B2   B   0.614374369532612   0.384607569046232   0.110791079384770   1.0000000
B2   B   0.620757734285182   0.544766294037968   0.111298742906392   1.0000000
B2   B   0.638829131501723   0.686117262822120   0.110903135508335   1.0000000
B2   B   0.626158462460323   0.817206987723675   0.110837399003569   1.0000000
B2   B   0.766651111318957   0.958066146111779   0.110715174703720   1.0000000
B2   B   0.764275110476041   0.099179505078103   0.110583284041795   1.0000000
B2   B   0.762435358361917   0.241092711760720   0.110573827878504   1.0000000
B2   B   0.759782950903755   0.383374380960880   0.110616529987864   1.0000000
B2   B   0.757344349639234   0.526478182861569   0.110795948405447   1.0000000
B2   B   0.773364351574754   0.676587350150851   0.110750741334718   1.0000000
B2   B   0.772236259077094   0.819500326020446   0.110830828566550   1.0000000
N2   N   0.956030655386381   0.906969590430033   0.110592286153480   1.0000000
N2   N   0.953968989433965   0.049483292069473   0.110642659724325   1.0000000
N2   N   0.953423106290271   0.192627114422221   0.110696137399143   1.0000000
N2   N   0.952878714987898   0.335102609630446   0.110635813791487   1.0000000
N2   N   0.951793961549548   0.477084276757947   0.110532806899138   1.0000000
N2   N   0.953880884043955   0.619041836473712   0.110600630446876   1.0000000
N2   N   0.955525884117421   0.762433337640233   0.110660722073386   1.0000000
N2   N   0.096385077472005   0.901982562055850   0.110512964678990   1.0000000
N2   N   0.093688264968108   0.043447307099992   0.110600123850106   1.0000000
N2   N   0.091993588103258   0.186273575874102   0.110654303190360   1.0000000
N2   N   0.096011981834369   0.333247950760726   0.110556650466441   1.0000000
N2   N   0.095807749913634   0.476333278379177   0.110623083081612   1.0000000
N2   N   0.097074028985994   0.618311355758111   0.110608517592968   1.0000000
N2   N   0.097200733148529   0.760053654013970   0.110513947252635   1.0000000
N2   N   0.239550086047330   0.901003585457068   0.110562679228480   1.0000000
N2   N   0.237059489984903   0.040780951350815   0.110628473634591   1.0000000
N2   N   0.231261928771081   0.178500288549934   0.110687278056751   1.0000000
N2   N   0.230503249519116   0.322019436765255   0.110375872681363   1.0000000
N2   N   0.239051729876094   0.475969282914443   0.110618946120154   1.0000000
N2   N   0.241456793013974   0.619148523068885   0.110712146604974   1.0000000
N2   N   0.240800212885187   0.760369037197496   0.110588134686453   1.0000000
N2   N   0.383818988843487   0.903226993434138   0.110582014427295   1.0000000
N2   N   0.382072608330619   0.041982218739586   0.110629120164598   1.0000000
N2   N   0.378857710874912   0.178121856913514   0.110790371759100   1.0000000
N2   N   0.369020606332600   0.305890828671700   0.111678172192281   1.0000000
N2   N   0.387988417259450   0.625935414227946   0.111012704375705   1.0000000
N2   N   0.385715890496150   0.764144113180292   0.110644318044144   1.0000000
N2   N   0.527861193426028   0.906182538203087   0.110595633521093   1.0000000
N2   N   0.526047152196816   0.047297753009554   0.110605275554085   1.0000000
N2   N   0.523915668395993   0.188036434614263   0.110732410966319   1.0000000
N2   N   0.518889236063154   0.327878561718870   0.110660182623488   1.0000000
N2   N   0.540909473961169   0.547064955050394   0.112516926054857   1.0000000
N2   N   0.547780153321084   0.633090152932910   0.111745471240101   1.0000000
N2   N   0.531119183885128   0.764878218672180   0.110846031269529   1.0000000
N2   N   0.671932949214910   0.911533861311272   0.110730181495982   1.0000000
N2   N   0.669404732633702   0.051543789122894   0.110531964377500   1.0000000
N2   N   0.667417697280088   0.193332027040571   0.110549210675375   1.0000000
N2   N   0.664291552619484   0.336594975322372   0.110670487435843   1.0000000
N2   N   0.659739780240804   0.482008655612515   0.110985912932271   1.0000000
N2   N   0.683208519020023   0.637083954033401   0.110440809055060   1.0000000
N2   N   0.679709066339225   0.777411153724557   0.110813678863915   1.0000000
N2   N   0.816300696335240   0.912612035213933   0.110720283050233   1.0000000
N2   N   0.812577844797190   0.052379187433719   0.110634239654958   1.0000000
N2   N   0.810762642823823   0.193902912184354   0.110585410623044   1.0000000
N2   N   0.808827924219229   0.336002914063130   0.110551992041359   1.0000000
N2   N   0.806703259140007   0.478390625591497   0.110593281742139   1.0000000
N2   N   0.813053377966193   0.622084647172216   0.110849430665458   1.0000000
N2   N   0.818612291345647   0.770592202355648   0.110921359571241   1.0000000


