data_1
_audit_creation_method   'vasp2cif'
_cell_length_a    17.52789999999977
_cell_length_b    17.52789999999977
_cell_length_c    15.0
_cell_angle_alpha    90.0
_cell_angle_beta    90.0
_cell_angle_gamma    119.99999999999916

_symmetry_space_group_name_H-M    'P 1'
loop_
_atom_site_label
_atom_site_type_symbol
_atom_site_fract_x
_atom_site_fract_y
_atom_site_fract_z
_atom_site_occupancy
Se2   Se   0.523256930130766   0.492810711604402   0.111385490536897   1.0000000
B2   B   0.906787582745906   0.953501210221826   0.111006083751160   1.0000000
B2   B   0.903397828598498   0.093690683143593   0.111025362075680   1.0000000
B2   B   0.902553172600629   0.235998337668112   0.111007802706772   1.0000000
B2   B   0.903347732466449   0.379439160860061   0.110909989494334   1.0000000
B2   B   0.906835020589101   0.523884716623676   0.110925083083361   1.0000000
B2   B   0.910559930279907   0.668793326863185   0.110913325270578   1.0000000
B2   B   0.910989283072905   0.813304048665407   0.110981302150434   1.0000000
B2   B   0.050297484589586   0.954108609129502   0.110924053194139   1.0000000
B2   B   0.047829620381068   0.095570777249707   0.110931135772716   1.0000000
B2   B   0.045037930239107   0.236445267622206   0.110917679001463   1.0000000
B2   B   0.044314872189149   0.379115657555486   0.110857383833474   1.0000000
B2   B   0.045879803482973   0.523130711134423   0.110917884448070   1.0000000
B2   B   0.049323534546142   0.667453537403883   0.111027526320392   1.0000000
B2   B   0.051038826237603   0.811303080704269   0.111012538038554   1.0000000
B2   B   0.192310112680616   0.953333614834910   0.110957933580064   1.0000000
B2   B   0.190581618033890   0.095335374924703   0.110958355744216   1.0000000
B2   B   0.189146737095763   0.238376778902211   0.110999151224259   1.0000000
B2   B   0.185569015151494   0.379115413771660   0.110930020324382   1.0000000
B2   B   0.184857593544777   0.522678584076291   0.110861572592295   1.0000000
B2   B   0.188736769325148   0.666612179409099   0.111022716324767   1.0000000
B2   B   0.191892670558885   0.810204408143019   0.111003734965738   1.0000000
B2   B   0.334227306690505   0.952193119232185   0.110957740883111   1.0000000
B2   B   0.333883827764170   0.095248462861069   0.111009878167802   1.0000000
B2   B   0.330381293089265   0.236246492941675   0.111087425777385   1.0000000
B2   B   0.330632488582982   0.383926614322532   0.111312145477680   1.0000000
B2   B   0.321926181865559   0.522186021257859   0.111116819025104   1.0000000
B2   B   0.328142015216735   0.665863377008961   0.110920807049169   1.0000000
B2   B   0.333338577235330   0.808954233172928   0.110971049444973   1.0000000
B2   B   0.476093515866707   0.949484217194948   0.110888630014163   1.0000000
B2   B   0.476342790055312   0.093573355387892   0.110975038039515   1.0000000
B2   B   0.476044324171070   0.236368368791011   0.111022951548627   1.0000000
B2   B   0.468063477525391   0.370017498330074   0.111202180620065   1.0000000
B2   B   0.463219799525675   0.557772123198675   0.111886173887653   1.0000000
B2   B   0.466439647165164   0.654304342767201   0.111368760008907   1.0000000
B2   B   0.475121612424437   0.803868753493355   0.111004276551547   1.0000000
B2   B   0.617813014080190   0.948841075172960   0.110966036448515   1.0000000
B2   B   0.618272380497528   0.092886410034400   0.110934989439067   1.0000000
B2   B   0.618873560400095   0.236832012138455   0.110910252795607   1.0000000
B2   B   0.620610409863874   0.381291537841086   0.110969209753588   1.0000000
B2   B   0.641582843212548   0.535995405467262   0.111337603886062   1.0000000
B2   B   0.632689792035560   0.671195210696302   0.111549837097988   1.0000000
B2   B   0.617180075095347   0.804684941297585   0.111245721360611   1.0000000
B2   B   0.760924653170715   0.950239694047817   0.111070595802945   1.0000000
B2   B   0.760307165369400   0.092771913676721   0.111046517111361   1.0000000
B2   B   0.760676208387937   0.236128242994426   0.110968925232772   1.0000000
B2   B   0.762341431179773   0.380065089979140   0.110862256176061   1.0000000
B2   B   0.768850883383048   0.525408711483316   0.110881753536164   1.0000000
B2   B   0.775415661762946   0.673729271616075   0.111121895161595   1.0000000
B2   B   0.766767786647423   0.811845261096055   0.111184265377499   1.0000000
N2   N   0.955974695451199   0.907385674494716   0.110945545747578   1.0000000
N2   N   0.952851532251663   0.047982639544880   0.110968990115700   1.0000000
N2   N   0.950134086549199   0.188574066924943   0.110986330687537   1.0000000
N2   N   0.949629119842192   0.331099404153645   0.110909940748964   1.0000000
N2   N   0.951539435966469   0.474770434277651   0.110900672333262   1.0000000
N2   N   0.955055084283011   0.619307156726134   0.110952088168810   1.0000000
N2   N   0.956702078994416   0.763967293053676   0.110962493347012   1.0000000
N2   N   0.097641671233594   0.906279765902919   0.110938888861379   1.0000000
N2   N   0.096136358701657   0.048556110339036   0.110892702881799   1.0000000
N2   N   0.094160583255758   0.190340886149175   0.110916566199428   1.0000000
N2   N   0.091111537989786   0.331016595481748   0.110849974195611   1.0000000
N2   N   0.090843566588269   0.474215623109734   0.110831078009402   1.0000000
N2   N   0.094255054119368   0.618497893651555   0.111008278896038   1.0000000
N2   N   0.097141756020138   0.762734356960187   0.111030563657192   1.0000000
N2   N   0.239377370449133   0.905377544582553   0.110946912963155   1.0000000
N2   N   0.239028115249335   0.048367166285930   0.110951314392920   1.0000000
N2   N   0.236385808541231   0.189915485019332   0.110987174866781   1.0000000
N2   N   0.235367764100694   0.333478274344649   0.111040403610435   1.0000000
N2   N   0.229099585395359   0.473279503703149   0.110872720220360   1.0000000
N2   N   0.233443775354445   0.617820134042449   0.110921499827689   1.0000000
N2   N   0.238100987489267   0.761900272131463   0.111011882437733   1.0000000
N2   N   0.381173526854091   0.904054460949314   0.110915915053511   1.0000000
N2   N   0.381457792042347   0.047458346185879   0.110970342328479   1.0000000
N2   N   0.380767322322428   0.190590696607172   0.111017160699781   1.0000000
N2   N   0.375711239315120   0.330908140889302   0.111212630608512   1.0000000
N2   N   0.372269060189752   0.478963620241151   0.111542865888053   1.0000000
N2   N   0.371207584839724   0.616680807095155   0.110943295394292   1.0000000
N2   N   0.379615636563131   0.760657719764863   0.110929047729297   1.0000000
N2   N   0.522830603527032   0.900498849380106   0.110876686571457   1.0000000
N2   N   0.523392783052709   0.045307347533251   0.110899626353169   1.0000000
N2   N   0.523738874716636   0.189166450265386   0.110955693577968   1.0000000
N2   N   0.523983260518827   0.332271374254245   0.111019481839041   1.0000000
N2   N   0.521360811898806   0.753372204656127   0.111215451370533   1.0000000
N2   N   0.665265890555949   0.900967886245754   0.111052093629886   1.0000000
N2   N   0.665290477409400   0.044698406427240   0.110947972443533   1.0000000
N2   N   0.665675021109844   0.188604594315324   0.110914054351250   1.0000000
N2   N   0.666773290605197   0.332682575116841   0.110864659241028   1.0000000
N2   N   0.674070256472648   0.477409644233364   0.110982073174066   1.0000000
N2   N   0.683157798037797   0.627976309102509   0.111517400442759   1.0000000
N2   N   0.671488631396801   0.763183992634716   0.111357340720913   1.0000000
N2   N   0.811820981967368   0.905856921740207   0.111062909429506   1.0000000
N2   N   0.808138696602118   0.045503254306908   0.111028033214575   1.0000000
N2   N   0.807600179456183   0.188126871752308   0.111024985894314   1.0000000
N2   N   0.808346187411005   0.331527285395606   0.110885286198857   1.0000000
N2   N   0.812351082442829   0.475580924827530   0.110842723757457   1.0000000
N2   N   0.816788268233697   0.621045356976510   0.110844492215638   1.0000000
N2   N   0.817311350946283   0.766947306395725   0.111046049271970   1.0000000


