data_1
_audit_creation_method   'vasp2cif'
_cell_length_a    17.52789999999977
_cell_length_b    17.52789999999977
_cell_length_c    15.0
_cell_angle_alpha    90.0
_cell_angle_beta    90.0
_cell_angle_gamma    119.99999999999916

_symmetry_space_group_name_H-M    'P 1'
loop_
_atom_site_label
_atom_site_type_symbol
_atom_site_fract_x
_atom_site_fract_y
_atom_site_fract_z
_atom_site_occupancy
B2   B   0.905830702138873   0.953191592278857   0.111030351951699   1.0000000
B2   B   0.904745203903567   0.095256817292430   0.111013522035178   1.0000000
B2   B   0.904331750567342   0.237880222129170   0.111040405848851   1.0000000
B2   B   0.904745203903567   0.380917080302128   0.111013522035178   1.0000000
B2   B   0.905830702138873   0.524069515108018   0.111030351951699   1.0000000
B2   B   0.905962894920416   0.667213375805233   0.111068853990582   1.0000000
B2   B   0.905962894920416   0.810179924363191   0.111068853990582   1.0000000
B2   B   0.047825828025169   0.952176193170835   0.111031410782551   1.0000000
B2   B   0.046810428917147   0.094171319057124   0.111030351951699   1.0000000
B2   B   0.046066301541891   0.236922214039418   0.111006378296607   1.0000000
B2   B   0.046066301541891   0.380574492749472   0.111006378296607   1.0000000
B2   B   0.046810428917147   0.524069515108018   0.111030351951699   1.0000000
B2   B   0.047825828025169   0.667081751658339   0.111031410782551   1.0000000
B2   B   0.048016722222375   0.809724419513190   0.111010387274139   1.0000000
B2   B   0.190277601682814   0.951985298973628   0.111010387274139   1.0000000
B2   B   0.189822096832812   0.094039126275581   0.111068853990582   1.0000000
B2   B   0.187231139884056   0.234877773504924   0.111036459796138   1.0000000
B2   B   0.186733919443709   0.379082162345355   0.111014390058265   1.0000000
B2   B   0.187231139884056   0.523783771627127   0.111036459796138   1.0000000
B2   B   0.189822096832812   0.667213375805233   0.111068853990582   1.0000000
B2   B   0.190277601682814   0.809724419513190   0.111010387274139   1.0000000
B2   B   0.332920269538660   0.952176193170835   0.111031410782551   1.0000000
B2   B   0.332788645391765   0.094039126275581   0.111068853990582   1.0000000
B2   B   0.331971371298466   0.235371126646932   0.111042408234847   1.0000000
B2   B   0.326008750977486   0.372099652111836   0.111013950355382   1.0000000
B2   B   0.326008750977486   0.525339504112650   0.111013950355382   1.0000000
B2   B   0.331971371298466   0.668030649898533   0.111042408234847   1.0000000
B2   B   0.332788645391765   0.810179924363191   0.111068853990582   1.0000000
B2   B   0.475932506088980   0.953191592278857   0.111030351951699   1.0000000
B2   B   0.475932506088980   0.094171319057124   0.111030351951699   1.0000000
B2   B   0.476218249569864   0.234877773504924   0.111036459796138   1.0000000
B2   B   0.474662517084347   0.372099652111836   0.111013950355382   1.0000000
B2   B   0.474662517084347   0.673993270219512   0.111013950355382   1.0000000
B2   B   0.476218249569864   0.812770881311948   0.111036459796138   1.0000000
B2   B   0.619427528446531   0.953935719654120   0.111006378296607   1.0000000
B2   B   0.619084940893876   0.095256817292430   0.111013522035178   1.0000000
B2   B   0.619427528446531   0.236922214039418   0.111006378296607   1.0000000
B2   B   0.620919858850649   0.379082162345355   0.111014390058265   1.0000000
B2   B   0.627902369084169   0.525339504112650   0.111013950355382   1.0000000
B2   B   0.627902369084169   0.673993270219512   0.111013950355382   1.0000000
B2   B   0.620919858850649   0.813268101752294   0.111014390058265   1.0000000
B2   B   0.763079807156585   0.953935719654120   0.111006378296607   1.0000000
B2   B   0.762121799066834   0.095670270628654   0.111040405848851   1.0000000
B2   B   0.762121799066834   0.237880222129170   0.111040405848851   1.0000000
B2   B   0.763079807156585   0.380574492749472   0.111006378296607   1.0000000
B2   B   0.765124247691080   0.523783771627127   0.111036459796138   1.0000000
B2   B   0.764630894549071   0.668030649898533   0.111042408234847   1.0000000
B2   B   0.765124247691080   0.812770881311948   0.111036459796138   1.0000000
N2   N   0.952848430610764   0.905008381480362   0.111031306432246   1.0000000
N2   N   0.952335699342527   0.047665702575479   0.110999198742716   1.0000000
N2   N   0.951671771613834   0.190127399085506   0.111003300121672   1.0000000
N2   N   0.951671771613834   0.332971354646326   0.111003300121672   1.0000000
N2   N   0.952335699342527   0.476096978885053   0.110999198742716   1.0000000
N2   N   0.952848430610764   0.619268742805398   0.111031306432246   1.0000000
N2   N   0.952903600191022   0.762166146933012   0.111045030533893   1.0000000
N2   N   0.095325252688499   0.904676149229500   0.110987072547794   1.0000000
N2   N   0.094993020437637   0.047152971307241   0.111031306432246   1.0000000
N2   N   0.093275417833446   0.188860268253101   0.111006951199054   1.0000000
N2   N   0.093058377886620   0.332243535780307   0.110989429512304   1.0000000
N2   N   0.093275417833446   0.475843843254345   0.111006951199054   1.0000000
N2   N   0.094993020437637   0.619268742805398   0.111031306432246   1.0000000
N2   N   0.095325252688499   0.762079508690011   0.110987072547794   1.0000000
N2   N   0.237921893227994   0.904676149229500   0.110987072547794   1.0000000
N2   N   0.237835254984993   0.047097801726984   0.111045030533893   1.0000000
N2   N   0.237258910256043   0.189431311030806   0.111040557667043   1.0000000
N2   N   0.232992409782652   0.329525832441934   0.111008481315867   1.0000000
N2   N   0.232992409782652   0.474895271014711   0.111008481315867   1.0000000
N2   N   0.237258910256043   0.619256292900232   0.111040557667043   1.0000000
N2   N   0.237835254984993   0.762166146933012   0.111045030533893   1.0000000
N2   N   0.380732659112600   0.905008381480362   0.111031306432246   1.0000000
N2   N   0.380732659112600   0.047152971307241   0.111031306432246   1.0000000
N2   N   0.380745109017766   0.189431311030806   0.111040557667043   1.0000000
N2   N   0.380336345788722   0.332099983334440   0.111004499795039   1.0000000
N2   N   0.364241388859149   0.467835041266568   0.110978087130864   1.0000000
N2   N   0.380336345788722   0.619665056129277   0.111004499795039   1.0000000
N2   N   0.380745109017766   0.762742491661963   0.111040557667043   1.0000000
N2   N   0.524157558662651   0.906725984084553   0.111006951199054   1.0000000
N2   N   0.523904423031943   0.047665702575479   0.110999198742716   1.0000000
N2   N   0.524157558662651   0.188860268253101   0.111006951199054   1.0000000
N2   N   0.525106130902285   0.329525832441934   0.111008481315867   1.0000000
N2   N   0.532166360650429   0.467835041266568   0.110978087130864   1.0000000
N2   N   0.532166360650429   0.635760013058850   0.110978087130864   1.0000000
N2   N   0.525106130902285   0.767008992135353   0.111008481315867   1.0000000
N2   N   0.667757866136690   0.906943024031378   0.110989429512304   1.0000000
N2   N   0.667030047270671   0.048329630304172   0.111003300121672   1.0000000
N2   N   0.667030047270671   0.190127399085506   0.111003300121672   1.0000000
N2   N   0.667757866136690   0.332243535780307   0.110989429512304   1.0000000
N2   N   0.670475569475062   0.474895271014711   0.111008481315867   1.0000000
N2   N   0.667901418582556   0.619665056129277   0.111004499795039   1.0000000
N2   N   0.670475569475062   0.767008992135353   0.111008481315867   1.0000000
N2   N   0.811141133664897   0.906725984084553   0.111006951199054   1.0000000
N2   N   0.809874002832492   0.048329630304172   0.111003300121672   1.0000000
N2   N   0.809525273905997   0.190476128012001   0.111040425606620   1.0000000
N2   N   0.809874002832492   0.332971354646326   0.111003300121672   1.0000000
N2   N   0.811141133664897   0.475843843254345   0.111006951199054   1.0000000
N2   N   0.810570090887192   0.619256292900232   0.111040557667043   1.0000000
N2   N   0.810570090887192   0.762742491661963   0.111040557667043   1.0000000
Se2   Se   0.476191212381998   0.523810808815000   0.110972500146315   1.0000000


