data_1
_audit_creation_method   'vasp2cif'
_cell_length_a    14.93631414619966
_cell_length_b    14.936314146199727
_cell_length_c    13.341276283792837
_cell_angle_alpha    90.0
_cell_angle_beta    90.0
_cell_angle_gamma    119.99999999999984

_symmetry_space_group_name_H-M    'P 1'
loop_
_atom_site_label
_atom_site_type_symbol
_atom_site_fract_x
_atom_site_fract_y
_atom_site_fract_z
_atom_site_occupancy
P2   P   0.409487618773137   0.371410476053273   0.375000000000000   1.0000000
P2   P   0.556873439156696   0.445103386245012   0.375000000000000   1.0000000
N2   N   0.111621255508335   0.055823130917974   0.125727521808522   1.0000000
N2   N   0.611691641143796   0.555950811546011   0.121651056324033   1.0000000
N2   N   0.444944189174427   0.055805983175865   0.125396224254052   1.0000000
N2   N   0.944912067332329   0.555784300403986   0.125436104713275   1.0000000
N2   N   0.778290651022749   0.055811992178016   0.125156647268698   1.0000000
N2   N   0.111572707952156   0.722453020642722   0.624440872262294   1.0000000
N2   N   0.444944189174427   0.722471539331890   0.624603775745937   1.0000000
N2   N   0.278319820412965   0.222494092072019   0.625477427590057   1.0000000
N2   N   0.778286565301759   0.722518613492707   0.625203918942897   1.0000000
N2   N   0.611631470919116   0.222432671459445   0.625413367408106   1.0000000
N2   N   0.944956681296890   0.222469195990836   0.624609039650492   1.0000000
N2   N   0.278253751078698   0.722457568853712   0.125611120426975   1.0000000
N2   N   0.111643013814363   0.222488173573860   0.125625996939198   1.0000000
N2   N   0.444983857857081   0.222510720174962   0.123974153036554   1.0000000
N2   N   0.611631470919116   0.722532132793028   0.124586632591819   1.0000000
N2   N   0.944912067332329   0.722461100261735   0.125436104713275   1.0000000
N2   N   0.778291147366253   0.222442484557174   0.125178678068869   1.0000000
N2   N   0.111586366658121   0.889135946918476   0.624293666899238   1.0000000
N2   N   0.444926642089968   0.889129987711656   0.624494934937766   1.0000000
N2   N   0.278319820412965   0.389159061674279   0.625477427590057   1.0000000
N2   N   0.611691641143796   0.389074162931204   0.628348943675991   1.0000000
N2   N   0.778291147366253   0.889181996142443   0.624821321931113   1.0000000
N2   N   0.944940862297681   0.389117847603352   0.624442291332289   1.0000000
N2   N   0.111621255508330   0.389131457923673   0.125727521808522   1.0000000
N2   N   0.278253751078698   0.889129515558363   0.125611120426975   1.0000000
N2   N   0.611612566816493   0.889160639259706   0.125277215974691   1.0000000
N2   N   0.445085041309505   0.389209187321408   0.119266851591949   1.0000000
N2   N   0.944940862297681   0.889156348027670   0.125557708667740   1.0000000
N2   N   0.778286565301759   0.389101285142457   0.124796081057120   1.0000000
N2   N   0.278285257861085   0.555801664264343   0.624412060730315   1.0000000
N2   N   0.111621255508335   0.055823130917974   0.624272478191454   1.0000000
N2   N   0.611691641143796   0.555950811546011   0.628348943675991   1.0000000
N2   N   0.444944189174427   0.055805983175868   0.624603775745937   1.0000000
N2   N   0.944912067332329   0.555784300403979   0.624563895286736   1.0000000
N2   N   0.111586366658121   0.555783753073010   0.125706333100776   1.0000000
N2   N   0.778290651022749   0.055811992178016   0.624843352731267   1.0000000
N2   N   0.278285257861085   0.055816926930065   0.125587939269718   1.0000000
N2   N   0.444983857857081   0.555806471015509   0.123974153036554   1.0000000
N2   N   0.778247430319676   0.555790381826531   0.124290499945606   1.0000000
N2   N   0.611612566816493   0.055785260890054   0.125277215974691   1.0000000
N2   N   0.444983857857081   0.555806471015509   0.626025846963404   1.0000000
N2   N   0.944956681296890   0.055820818639411   0.125390960349439   1.0000000
N2   N   0.278253751078698   0.722457568853712   0.624388879573059   1.0000000
N2   N   0.111643013814363   0.222488173573860   0.624374003060765   1.0000000
N2   N   0.444983857857081   0.222510720174962   0.626025846963404   1.0000000
N2   N   0.611631470919116   0.722532132793028   0.625413367408106   1.0000000
N2   N   0.944912067332329   0.722461100261735   0.624563895286736   1.0000000
N2   N   0.778291147366253   0.222442484557174   0.624821321931113   1.0000000
N2   N   0.111572707952156   0.722453020642722   0.125559127737743   1.0000000
N2   N   0.444944189174427   0.722471539331890   0.125396224254052   1.0000000
N2   N   0.278319820412965   0.222494092072019   0.124522572410007   1.0000000
N2   N   0.778286565301759   0.722518613492707   0.124796081057120   1.0000000
N2   N   0.611631470919116   0.222432671459445   0.124586632591819   1.0000000
N2   N   0.944956681296890   0.222469195990836   0.125390960349439   1.0000000
N2   N   0.111621255508335   0.389131457923673   0.624272478191454   1.0000000
N2   N   0.278253751078698   0.889129515558363   0.624388879573059   1.0000000
N2   N   0.611612566816493   0.889160639259706   0.624722784025197   1.0000000
N2   N   0.445085041309505   0.389209187321408   0.630733148408056   1.0000000
N2   N   0.944940862297681   0.889156348027670   0.624442291332289   1.0000000
N2   N   0.111586366658121   0.889135946918476   0.125706333100776   1.0000000
N2   N   0.778286565301759   0.389101285142457   0.625203918942897   1.0000000
N2   N   0.444926642089968   0.889129987711656   0.125505065062191   1.0000000
N2   N   0.278319820412965   0.389159061674279   0.124522572410007   1.0000000
N2   N   0.278285257861085   0.555801664264343   0.125587939269718   1.0000000
N2   N   0.611691641143796   0.389074162931204   0.121651056324033   1.0000000
N2   N   0.778291147366253   0.889181996142443   0.125178678068869   1.0000000
N2   N   0.944940862297681   0.389117847603352   0.125557708667740   1.0000000
N2   N   0.111586366658121   0.555783753073010   0.624293666899238   1.0000000
N2   N   0.278285257861085   0.055816926930065   0.624412060730315   1.0000000
N2   N   0.778247430319676   0.555790381826531   0.625709500054354   1.0000000
N2   N   0.611612566816493   0.055785260890054   0.624722784025197   1.0000000
N2   N   0.944956681296890   0.055820818639411   0.624609039650492   1.0000000
N2   N   0.055686635044616   0.110958198197273   0.375000000000000   1.0000000
N2   N   0.555865054073632   0.622657676278505   0.375000000000000   1.0000000
N2   N   0.386426172707825   0.100578976330529   0.375000000000000   1.0000000
N2   N   0.888064943136734   0.610699138234912   0.375000000000000   1.0000000
N2   N   0.723351403370424   0.110440119071747   0.375000000000000   1.0000000
N2   N   0.055557358016509   0.777778666411268   0.875000000000000   1.0000000
N2   N   0.388886386490635   0.777780403384499   0.875000000000000   1.0000000
N2   N   0.222225999799047   0.277779666566157   0.875000000000000   1.0000000
N2   N   0.722224612472505   0.777778789592052   0.875000000000000   1.0000000
N2   N   0.555551895119660   0.277766820329713   0.875000000000000   1.0000000
N2   N   0.888895376003381   0.277783250768734   0.875000000000000   1.0000000
N2   N   0.219737029892076   0.776535181612709   0.375000000000000   1.0000000
N2   N   0.055686635044616   0.278061770180673   0.375000000000000   1.0000000
N2   N   0.379264988397305   0.250956886022103   0.375000000000000   1.0000000
N2   N   0.555498156575699   0.783036050812872   0.375000000000000   1.0000000
N2   N   0.890253548483785   0.779632563812372   0.375000000000000   1.0000000
N2   N   0.723889605032348   0.275347550514857   0.375000000000000   1.0000000
N2   N   0.055556902468318   0.944442749634107   0.875000000000000   1.0000000
N2   N   0.388886386490635   0.944439316439452   0.875000000000000   1.0000000
N2   N   0.222220496485653   0.444450598819646   0.875000000000000   1.0000000
N2   N   0.555572023345112   0.444452678339220   0.875000000000000   1.0000000
N2   N   0.722220975356360   0.944443625138642   0.875000000000000   1.0000000
N2   N   0.888897634680346   0.444449321079865   0.875000000000000   1.0000000
N2   N   0.053664230186961   0.444856574698877   0.375000000000000   1.0000000
N2   N   0.219447903851754   0.940172986127647   0.375000000000000   1.0000000
N2   N   0.555444324552979   0.944388828943140   0.375000000000000   1.0000000
N2   N   0.379264988397305   0.461641435708572   0.375000000000000   1.0000000
N2   N   0.889845799236776   0.945828127210008   0.375000000000000   1.0000000
N2   N   0.727457135794362   0.442712767724036   0.375000000000000   1.0000000
N2   N   0.222218040481312   0.611113506225556   0.875000000000000   1.0000000
N2   N   0.055561585512810   0.111112009976267   0.875000000000000   1.0000000
N2   N   0.555551895119660   0.611118408123290   0.875000000000000   1.0000000
N2   N   0.388883781376181   0.111099048311253   0.875000000000000   1.0000000
N2   N   0.888901974645012   0.611117653989097   0.875000000000000   1.0000000
N2   N   0.053677621531915   0.610773256099987   0.375000000000000   1.0000000
N2   N   0.722220975356360   0.111110683550981   0.875000000000000   1.0000000
N2   N   0.216412153394806   0.102510262682749   0.375000000000000   1.0000000
N2   N   0.386426172707825   0.619180529710706   0.375000000000000   1.0000000
N2   N   0.727457135794362   0.618077701403766   0.375000000000000   1.0000000
N2   N   0.555498156575699   0.105795439096195   0.375000000000000   1.0000000
N2   N   0.388883781376181   0.611118066398290   0.875000000000000   1.0000000
N2   N   0.889936135238182   0.111634734285752   0.375000000000000   1.0000000
N2   N   0.222219669111908   0.777776501222649   0.875000000000000   1.0000000
N2   N   0.055561585512810   0.277782908869896   0.875000000000000   1.0000000
N2   N   0.388884649550182   0.277761510751267   0.875000000000000   1.0000000
N2   N   0.555550446400601   0.777780366380145   0.875000000000000   1.0000000
N2   N   0.888897634680346   0.777781646933857   0.875000000000000   1.0000000
N2   N   0.722224612472505   0.277779156213762   0.875000000000000   1.0000000
N2   N   0.053677621531915   0.776237698765271   0.375000000000000   1.0000000
N2   N   0.386990197757487   0.779683246019235   0.375000000000000   1.0000000
N2   N   0.222513525606295   0.277923429469827   0.375000000000000   1.0000000
N2   N   0.723889605032348   0.781875387850848   0.375000000000000   1.0000000
N2   N   0.555865054073632   0.266540711128554   0.375000000000000   1.0000000
N2   N   0.889845799236776   0.277351005360021   0.375000000000000   1.0000000
N2   N   0.055556902468318   0.444447486167472   0.875000000000000   1.0000000
N2   N   0.222218040481312   0.944437867589094   0.875000000000000   1.0000000
N2   N   0.555550736640017   0.944442034986672   0.875000000000000   1.0000000
N2   N   0.388884649550182   0.444456472132184   0.875000000000000   1.0000000
N2   N   0.888895376003381   0.944445458567940   0.875000000000000   1.0000000
N2   N   0.053664230186961   0.942140988821422   0.375000000000000   1.0000000
N2   N   0.722238715867954   0.444453098730616   0.875000000000000   1.0000000
N2   N   0.386990197757486   0.940640285071591   0.375000000000000   1.0000000
N2   N   0.216412153394794   0.447235224045376   0.375000000000000   1.0000000
N2   N   0.219447903851754   0.612608251057443   0.375000000000000   1.0000000
N2   N   0.723351403370424   0.946244617632039   0.375000000000000   1.0000000
N2   N   0.890253548483785   0.443954318004786   0.375000000000000   1.0000000
N2   N   0.055557358016509   0.611112024938610   0.875000000000000   1.0000000
N2   N   0.222220496485653   0.111103230999338   0.875000000000000   1.0000000
N2   N   0.722238715867954   0.611118950470716   0.875000000000000   1.0000000
N2   N   0.555550446400601   0.111103413353811   0.875000000000000   1.0000000
N2   N   0.888895433855487   0.111114383594421   0.875000000000000   1.0000000
B2   B   0.107395116999373   0.051634485620242   0.375000000000000   1.0000000
B2   B   0.619158240527653   0.577353315896876   0.375000000000000   1.0000000
B2   B   0.444094785580320   0.049425308062295   0.375000000000000   1.0000000
B2   B   0.943389446946232   0.554915455601324   0.375000000000000   1.0000000
B2   B   0.779305662469476   0.056319497901373   0.375000000000000   1.0000000
B2   B   0.111111091910697   0.722222212621975   0.875000000000000   1.0000000
B2   B   0.444439917527442   0.722209963940748   0.875000000000000   1.0000000
B2   B   0.277810339095867   0.222243530987667   0.875000000000000   1.0000000
B2   B   0.777765618571980   0.722205977949912   0.875000000000000   1.0000000
B2   B   0.611095559625350   0.222231558546395   0.875000000000000   1.0000000
B2   B   0.944456911003267   0.222228652047653   0.875000000000000   1.0000000
B2   B   0.275989057899777   0.722951695685551   0.375000000000000   1.0000000
B2   B   0.111072694738539   0.222203014035927   0.375000000000000   1.0000000
B2   B   0.443889978204060   0.208923133813055   0.375000000000000   1.0000000
B2   B   0.612826775526326   0.731078054824310   0.375000000000000   1.0000000
B2   B   0.943389446946232   0.721807324678322   0.375000000000000   1.0000000
B2   B   0.779360218998405   0.220886623252820   0.375000000000000   1.0000000
B2   B   0.111115025977519   0.888894056854691   0.875000000000000   1.0000000
B2   B   0.444442215819178   0.888887774576328   0.875000000000000   1.0000000
B2   B   0.277810339095867   0.388900141441500   0.875000000000000   1.0000000
B2   B   0.611088852282245   0.388897677983118   0.875000000000000   1.0000000
B2   B   0.777773880153487   0.888880100838559   0.875000000000000   1.0000000
B2   B   0.944446269963465   0.388890301245931   0.875000000000000   1.0000000
B2   B   0.107395116999373   0.389093964712456   0.375000000000000   1.0000000
B2   B   0.275989057899777   0.886370695547593   0.375000000000000   1.0000000
B2   B   0.612416660792653   0.892033847039318   0.375000000000000   1.0000000
B2   B   0.944213928268737   0.889389613808612   0.375000000000000   1.0000000
B2   B   0.781115177608913   0.386817591942813   0.375000000000000   1.0000000
B2   B   0.277786606085403   0.555551722165463   0.875000000000000   1.0000000
B2   B   0.111126929342738   0.055566880850996   0.875000000000000   1.0000000
B2   B   0.611088852282245   0.555524507632469   0.875000000000000   1.0000000
B2   B   0.444439917527442   0.055563286920072   0.875000000000000   1.0000000
B2   B   0.944440254814594   0.555554326686338   0.875000000000000   1.0000000
B2   B   0.108922908711085   0.555746478334075   0.375000000000000   1.0000000
B2   B   0.777778829302019   0.055556081317659   0.875000000000000   1.0000000
B2   B   0.275175022376892   0.049599960079918   0.375000000000000   1.0000000
B2   B   0.443889978204060   0.568300177724310   0.375000000000000   1.0000000
B2   B   0.777746290239453   0.555539811786328   0.375000000000000   1.0000000
B2   B   0.612416660792653   0.053716147086585   0.375000000000000   1.0000000
B2   B   0.444441321063389   0.555535269266943   0.875000000000000   1.0000000
B2   B   0.945175179832381   0.056352535182625   0.375000000000000   1.0000000
B2   B   0.277779384275489   0.722219427023811   0.875000000000000   1.0000000
B2   B   0.111142159140583   0.222237746236935   0.875000000000000   1.0000000
B2   B   0.444441321063389   0.222239385129778   0.875000000000000   1.0000000
B2   B   0.611095559625350   0.722197334412328   0.875000000000000   1.0000000
B2   B   0.944440254814594   0.722219261461644   0.875000000000000   1.0000000
B2   B   0.777773880153487   0.222227112648295   0.875000000000000   1.0000000
B2   B   0.109156437861520   0.721244885597441   0.375000000000000   1.0000000
B2   B   0.444094785580320   0.728002810851387   0.375000000000000   1.0000000
B2   B   0.270589659334449   0.210737953770641   0.375000000000000   1.0000000
B2   B   0.781115177608913   0.727630918999414   0.375000000000000   1.0000000
B2   B   0.612826775526326   0.215082054035431   0.375000000000000   1.0000000
B2   B   0.945175179832381   0.222155977983070   0.375000000000000   1.0000000
B2   B   0.111126929342738   0.388893381825036   0.875000000000000   1.0000000
B2   B   0.277779384275489   0.888893290585022   0.875000000000000   1.0000000
B2   B   0.611104822431649   0.888880228244120   0.875000000000000   1.0000000
B2   B   0.444458168670215   0.388895751001751   0.875000000000000   1.0000000
B2   B   0.944446269963465   0.888889302050846   0.875000000000000   1.0000000
B2   B   0.108922908711085   0.886509763710282   0.375000000000000   1.0000000
B2   B   0.777765618571980   0.388892973955488   0.875000000000000   1.0000000
B2   B   0.444220457627347   0.888776895480342   0.375000000000000   1.0000000
B2   B   0.270589659334418   0.393185038897129   0.375000000000000   1.0000000
B2   B   0.275175022376892   0.558908395630297   0.375000000000000   1.0000000
B2   B   0.619158240527653   0.375138257964125   0.375000000000000   1.0000000
B2   B   0.779360218998405   0.891806929078908   0.375000000000000   1.0000000
B2   B   0.944213928268737   0.388157647793471   0.375000000000000   1.0000000
B2   B   0.111115025977519   0.555554302456072   0.875000000000000   1.0000000
B2   B   0.277786606085403   0.055568217253227   0.875000000000000   1.0000000
B2   B   0.777762211522906   0.555547772428123   0.875000000000000   1.0000000
B2   B   0.611104822431649   0.055557927520905   0.875000000000000   1.0000000
B2   B   0.944456911003267   0.055561592288923   0.875000000000000   1.0000000
B2   B   0.056079137761307   0.111397303932496   0.125546609531660   1.0000000
B2   B   0.556088853699410   0.611338053893799   0.123252604764917   1.0000000
B2   B   0.389437209384784   0.111460868085254   0.125090954039264   1.0000000
B2   B   0.889312597838131   0.611322965585726   0.125060544187540   1.0000000
B2   B   0.722721778795046   0.111343595742977   0.125162758354923   1.0000000
B2   B   0.056019148508414   0.778021887799451   0.624483065122183   1.0000000
B2   B   0.389388483465116   0.778010209029099   0.624510862087100   1.0000000
B2   B   0.222834940956763   0.278084137145047   0.625046568449053   1.0000000
B2   B   0.722706540434432   0.778057747966959   0.625205612070400   1.0000000
B2   B   0.556088853699410   0.278084133138865   0.626747395235125   1.0000000
B2   B   0.889385332326159   0.277993287132426   0.624668033450264   1.0000000
B2   B   0.222703868598358   0.778018600965797   0.125528645001708   1.0000000
B2   B   0.056079137761307   0.278015167162106   0.125546609531660   1.0000000
B2   B   0.389529407414782   0.278263639881131   0.122853801897022   1.0000000
B2   B   0.556063409421879   0.778037227207317   0.125089419744180   1.0000000
B2   B   0.889354438623722   0.778040584958374   0.125250074214632   1.0000000
B2   B   0.722706540434432   0.277982125800791   0.124794387929580   1.0000000
B2   B   0.056054943905522   0.944730738479017   0.624357492535327   1.0000000
B2   B   0.389388483465116   0.944711607769390   0.624510862087100   1.0000000
B2   B   0.222794887308485   0.444665705358025   0.624699579653442   1.0000000
B2   B   0.556058270162292   0.444695801747810   0.628651159157109   1.0000000
B2   B   0.722721778795046   0.944711516385346   0.624837241645055   1.0000000
B2   B   0.889354438623722   0.444647186998685   0.624749925785369   1.0000000
B2   B   0.056054943905522   0.444657538759854   0.125642507464641   1.0000000
B2   B   0.222726718533859   0.944730818873867   0.125617104858187   1.0000000
B2   B   0.556054776615393   0.944694054974474   0.125341517829913   1.0000000
B2   B   0.389529407414782   0.444599100866972   0.122853801897022   1.0000000
B2   B   0.889385332326159   0.944725378527125   0.125331966549722   1.0000000
B2   B   0.722633946817201   0.444619728004455   0.123505988655052   1.0000000
B2   B   0.222726718533859   0.611329232993317   0.624382895141855   1.0000000
B2   B   0.056079137761307   0.111397303932496   0.624453390468320   1.0000000
B2   B   0.556088853699410   0.611338053893799   0.626747395235125   1.0000000
B2   B   0.389437209384784   0.111460868085254   0.624909045960685   1.0000000
B2   B   0.889312597838131   0.611322965585726   0.624939455812388   1.0000000
B2   B   0.056019148508414   0.611330594042369   0.125516934877872   1.0000000
B2   B   0.722721778795046   0.111343595742977   0.624837241645055   1.0000000
B2   B   0.222794887308485   0.111462515283840   0.125300420346530   1.0000000
B2   B   0.389437209384784   0.611309674632875   0.125090954039264   1.0000000
B2   B   0.722633946817201   0.611347552146118   0.123505988655052   1.0000000
B2   B   0.556063409421879   0.111359515547924   0.125089419744180   1.0000000
B2   B   0.389437209384784   0.611309674632875   0.624909045960685   1.0000000
B2   B   0.889393736399483   0.111363534866474   0.125252957946859   1.0000000
B2   B   0.222703868598358   0.778018600965797   0.624471354998197   1.0000000
B2   B   0.056079137761307   0.278015167162106   0.624453390468320   1.0000000
B2   B   0.389529407414782   0.278263639881131   0.627146198102968   1.0000000
B2   B   0.556063409421879   0.778037227207317   0.624910580255815   1.0000000
B2   B   0.889354438623722   0.778040584958374   0.624749925785369   1.0000000
B2   B   0.722706540434432   0.277982125800791   0.625205612070400   1.0000000
B2   B   0.056019148508414   0.778021887799451   0.125516934877872   1.0000000
B2   B   0.389388483465116   0.778010209029099   0.125489137912875   1.0000000
B2   B   0.222834940956763   0.278084137145047   0.124953431550901   1.0000000
B2   B   0.722706540434432   0.778057747966959   0.124794387929580   1.0000000
B2   B   0.556088853699410   0.278084133138865   0.123252604764917   1.0000000
B2   B   0.889385332326159   0.277993287132426   0.125331966549722   1.0000000
B2   B   0.056054943905522   0.444657538759854   0.624357492535327   1.0000000
B2   B   0.222726718533859   0.944730818873867   0.624382895141855   1.0000000
B2   B   0.556054776615393   0.944694054974474   0.624658482170047   1.0000000
B2   B   0.389529407414782   0.444599100866972   0.627146198102968   1.0000000
B2   B   0.889385332326159   0.944725378527125   0.624668033450264   1.0000000
B2   B   0.056054943905522   0.944730738479017   0.125642507464641   1.0000000
B2   B   0.722633946817201   0.444619728004455   0.626494011344988   1.0000000
B2   B   0.389388483465116   0.944711607769390   0.125489137912875   1.0000000
B2   B   0.222794887308485   0.444665705358025   0.125300420346530   1.0000000
B2   B   0.222726718533859   0.611329232993317   0.125617104858187   1.0000000
B2   B   0.556058270162292   0.444695801747810   0.121348840842981   1.0000000
B2   B   0.722721778795046   0.944711516385346   0.125162758354923   1.0000000
B2   B   0.889354438623722   0.444647186998685   0.125250074214632   1.0000000
B2   B   0.056019148508414   0.611330594042369   0.624483065122183   1.0000000
B2   B   0.222794887308485   0.111462515283840   0.624699579653442   1.0000000
B2   B   0.722633946817201   0.611347552146118   0.626494011344988   1.0000000
B2   B   0.556063409421879   0.111359515547924   0.624910580255815   1.0000000
B2   B   0.889393736399483   0.111363534866474   0.624747042053132   1.0000000


