data_1
_audit_creation_method   'vasp2cif'
_cell_length_a    17.52789999999977
_cell_length_b    17.52789999999977
_cell_length_c    15.0
_cell_angle_alpha    90.0
_cell_angle_beta    90.0
_cell_angle_gamma    119.99999999999916

_symmetry_space_group_name_H-M    'P 1'
loop_
_atom_site_label
_atom_site_type_symbol
_atom_site_fract_x
_atom_site_fract_y
_atom_site_fract_z
_atom_site_occupancy
B2   B   0.905785906453687   0.953709379774746   0.111005344801403   1.0000000
B2   B   0.905166206287445   0.095881732333654   0.111034168411100   1.0000000
B2   B   0.904825630856124   0.238250957558290   0.111045500566000   1.0000000
B2   B   0.904549938101339   0.380759229945067   0.110966030639124   1.0000000
B2   B   0.904179264663960   0.523392755725530   0.110981826037921   1.0000000
B2   B   0.904363169400799   0.666495728730253   0.111079201284975   1.0000000
B2   B   0.905618212416314   0.810572174020419   0.111049764163370   1.0000000
B2   B   0.047736389725003   0.952510603028887   0.110975730307303   1.0000000
B2   B   0.047570148660305   0.095109133157325   0.110983949764442   1.0000000
B2   B   0.047383545887774   0.237907266024896   0.110981155862846   1.0000000
B2   B   0.047127399191480   0.380840830668418   0.111004937523762   1.0000000
B2   B   0.046771090055010   0.523695346246145   0.111007119333969   1.0000000
B2   B   0.046846300774598   0.666409738234373   0.111026293381331   1.0000000
B2   B   0.047138396066427   0.809278293254152   0.110977555109526   1.0000000
B2   B   0.189733665222971   0.951652453287864   0.110976445469677   1.0000000
B2   B   0.190088756773675   0.094506347999835   0.111038022727429   1.0000000
B2   B   0.189278504586545   0.236441972187168   0.110993570962014   1.0000000
B2   B   0.189391920536459   0.380184350507448   0.111002501018053   1.0000000
B2   B   0.188984038229481   0.523843183485040   0.111084341321420   1.0000000
B2   B   0.189574981869777   0.666644725064387   0.111105614169014   1.0000000
B2   B   0.189607296755561   0.809155488312898   0.111006261977153   1.0000000
B2   B   0.332427724527547   0.951635008204592   0.111020726643312   1.0000000
B2   B   0.332282605864724   0.093648143285295   0.111086427957100   1.0000000
B2   B   0.332893590622220   0.236558131384243   0.111088145565870   1.0000000
B2   B   0.330335981255304   0.376699057663194   0.111062749225284   1.0000000
B2   B   0.330312472402274   0.523847423242904   0.111060029098489   1.0000000
B2   B   0.332372967429694   0.667187733897745   0.111124173789691   1.0000000
B2   B   0.332404295519967   0.809542899650068   0.111086666286817   1.0000000
B2   B   0.475522811216347   0.952469951964516   0.111007274111993   1.0000000
B2   B   0.475435697841401   0.093576841693645   0.111021515496100   1.0000000
B2   B   0.475021992145578   0.234084392467186   0.111041474220519   1.0000000
B2   B   0.478288882172491   0.376992694861333   0.111163298960832   1.0000000
B2   B   0.475843773338009   0.671382059338959   0.111036732304633   1.0000000
B2   B   0.475575613471589   0.811469767863898   0.111048487763732   1.0000000
B2   B   0.619054988693557   0.953795931337249   0.110996127926245   1.0000000
B2   B   0.618829514538763   0.094960697168999   0.110984833737180   1.0000000
B2   B   0.618723841807718   0.236208189602484   0.110981622992162   1.0000000
B2   B   0.617642788407370   0.376928099253815   0.110982963616342   1.0000000
B2   B   0.622794380829054   0.674677443216859   0.111000814237128   1.0000000
B2   B   0.619847149001341   0.813261012464758   0.110990838974645   1.0000000
B2   B   0.762759678424017   0.954166771304362   0.110996685206494   1.0000000
B2   B   0.762161011238128   0.095859714765603   0.111048246243332   1.0000000
B2   B   0.761970477665858   0.237868524637356   0.111028991904187   1.0000000
B2   B   0.761723667239445   0.380081682217402   0.110976886064433   1.0000000
B2   B   0.761245519798177   0.523491114667646   0.111026973071574   1.0000000
B2   B   0.763983822224178   0.668089938865687   0.111036163610886   1.0000000
B2   B   0.764290242714068   0.812918011745812   0.111023149843844   1.0000000
Si2   Si   0.482701004609488   0.521999472002618   0.111190520965491   1.0000000
N2   N   0.952884287500322   0.905654352588547   0.110988738633968   1.0000000
N2   N   0.952828029452443   0.048425526769370   0.110989092548800   1.0000000
N2   N   0.952532438638237   0.190805252734720   0.111020559678679   1.0000000
N2   N   0.952325419025420   0.333290044107679   0.110982846396571   1.0000000
N2   N   0.951990757966620   0.475921450785028   0.110935073487740   1.0000000
N2   N   0.951929891640198   0.618811125787830   0.111009518581634   1.0000000
N2   N   0.952207702285174   0.761995788290691   0.111032245260925   1.0000000
N2   N   0.094771687463019   0.904433191653107   0.110934303881208   1.0000000
N2   N   0.095109023907071   0.047533025221211   0.110976670342131   1.0000000
N2   N   0.094651834655184   0.189988636048823   0.110949739311848   1.0000000
N2   N   0.094738039095380   0.333119899527868   0.110967170394211   1.0000000
N2   N   0.094368101390773   0.476067873557603   0.111018697521955   1.0000000
N2   N   0.094591587526950   0.618876846685835   0.111030957783419   1.0000000
N2   N   0.094612684179933   0.761595691668866   0.110973885258465   1.0000000
N2   N   0.237309122944349   0.904120750941696   0.110961930133101   1.0000000
N2   N   0.237230053324574   0.046579743582409   0.111025511080762   1.0000000
N2   N   0.237532808999726   0.189586157514035   0.111032899898659   1.0000000
N2   N   0.236110029534290   0.331392760795414   0.110991842535321   1.0000000
N2   N   0.236204925609757   0.475897124707912   0.111040105297634   1.0000000
N2   N   0.237330967563616   0.619074267867449   0.111113974921619   1.0000000
N2   N   0.237323925873868   0.761683059570719   0.111075615364231   1.0000000
N2   N   0.380265809890553   0.904414114609120   0.111021007498250   1.0000000
N2   N   0.380114974970704   0.046350813639678   0.111026341335517   1.0000000
N2   N   0.379715120876616   0.188237803977224   0.111072352593012   1.0000000
N2   N   0.380699368110699   0.331844058203152   0.111090067567207   1.0000000
N2   N   0.373923009110476   0.472327027368662   0.111060463636728   1.0000000
N2   N   0.380414824206918   0.619628660768621   0.111057830479458   1.0000000
N2   N   0.380288107412718   0.762275835159750   0.111095061744367   1.0000000
N2   N   0.523648652255878   0.905868993539496   0.110994342232013   1.0000000
N2   N   0.523512255331041   0.046916987666410   0.110964609311093   1.0000000
N2   N   0.523311819164821   0.187742925435945   0.110990680642105   1.0000000
N2   N   0.522608016250491   0.327327743440431   0.111025427805004   1.0000000
N2   N   0.534007743297151   0.469232863759911   0.111306677601508   1.0000000
N2   N   0.528093848552191   0.629313756679156   0.111027714788717   1.0000000
N2   N   0.523978661189645   0.765301287817050   0.111001650328971   1.0000000
N2   N   0.667397224701143   0.907366779491992   0.110976715046824   1.0000000
N2   N   0.666929948230731   0.048253075511594   0.110986830756578   1.0000000
N2   N   0.666822229666413   0.189524554659386   0.110984740173924   1.0000000
N2   N   0.666766471669223   0.330597971136831   0.110963186595791   1.0000000
N2   N   0.669408643496433   0.468902519107228   0.110836546795105   1.0000000
N2   N   0.672269935096918   0.632485344373557   0.110843292435297   1.0000000
N2   N   0.669505868643428   0.768380399653837   0.110976545142497   1.0000000
N2   N   0.811035980096676   0.907347613606457   0.110982345938748   1.0000000
N2   N   0.810120188186572   0.048790832971961   0.111024702291425   1.0000000
N2   N   0.809829662006444   0.190663996317391   0.111044234877396   1.0000000
N2   N   0.809700518328576   0.332816475005295   0.110974762621960   1.0000000
N2   N   0.809511251115860   0.475406793914126   0.110979963421187   1.0000000
N2   N   0.809503408525455   0.619144880725399   0.111088605712004   1.0000000
N2   N   0.810901150072349   0.764313980216514   0.111049913986277   1.0000000


