data_1
_audit_creation_method   'vasp2cif'
_cell_length_a    14.93631414619966
_cell_length_b    14.936314146199727
_cell_length_c    13.341276283792837
_cell_angle_alpha    90.0
_cell_angle_beta    90.0
_cell_angle_gamma    119.99999999999984

_symmetry_space_group_name_H-M    'P 1'
loop_
_atom_site_label
_atom_site_type_symbol
_atom_site_fract_x
_atom_site_fract_y
_atom_site_fract_z
_atom_site_occupancy
As2   As   0.555555555555557   0.444444444444443   0.375000000000000   1.0000000
N2   N   0.111083008726586   0.055546976783609   0.127636849520432   1.0000000
N2   N   0.611185255086698   0.555703843506985   0.127748427997840   1.0000000
N2   N   0.444447485071170   0.055563814606460   0.128565739342557   1.0000000
N2   N   0.944436185393684   0.555552514928889   0.128565739342564   1.0000000
N2   N   0.777782794653469   0.055558063993331   0.127329608037882   1.0000000
N2   N   0.111097027311738   0.722215180322618   0.622137768313997   1.0000000
N2   N   0.444447485071170   0.722217003797970   0.621434260657534   1.0000000
N2   N   0.277726520717328   0.222196842677140   0.621553334464949   1.0000000
N2   N   0.777803157322814   0.722273479282775   0.621553334464947   1.0000000
N2   N   0.611136988626439   0.222196842677140   0.621553334465003   1.0000000
N2   N   0.944441936006709   0.222217205346628   0.622670391961870   1.0000000
N2   N   0.277784819677417   0.722215180322618   0.127862231685913   1.0000000
N2   N   0.111075990246336   0.222204661789794   0.127529466461442   1.0000000
N2   N   0.444456288715262   0.222245910763904   0.129511712765954   1.0000000
N2   N   0.611136988626439   0.722273479282775   0.128446665534971   1.0000000
N2   N   0.944436185393684   0.722217003797970   0.128565739342559   1.0000000
N2   N   0.777795338210283   0.222204661789794   0.127529466461442   1.0000000
N2   N   0.111106732186154   0.888893267813713   0.622186973949322   1.0000000
N2   N   0.444453202294295   0.888893267813713   0.622186973949322   1.0000000
N2   N   0.277726520717328   0.388863011373454   0.621553334464949   1.0000000
N2   N   0.611185255086698   0.388814744913172   0.622251572002265   1.0000000
N2   N   0.777795338210283   0.888924009753555   0.622470533538479   1.0000000
N2   N   0.944453023216319   0.388869365276311   0.622363150479612   1.0000000
N2   N   0.111083008726586   0.388869365276311   0.127636849520432   1.0000000
N2   N   0.277784819677417   0.888902972688163   0.127862231685909   1.0000000
N2   N   0.611130634723764   0.888916991273499   0.127636849520432   1.0000000
N2   N   0.444296156493001   0.388814744913172   0.127748427997840   1.0000000
N2   N   0.944453023216319   0.888916991273499   0.127636849520432   1.0000000
N2   N   0.777803157322814   0.388863011373454   0.128446665534970   1.0000000
N2   N   0.277782996201915   0.555552514928889   0.621434260657534   1.0000000
N2   N   0.111083008726586   0.055546976783610   0.622363150479612   1.0000000
N2   N   0.611185255086698   0.555703843506985   0.622251572002261   1.0000000
N2   N   0.444447485071170   0.055563814606460   0.621434260657570   1.0000000
N2   N   0.944436185393684   0.555552514928889   0.621434260657570   1.0000000
N2   N   0.111106732186154   0.555546797705595   0.127813026050469   1.0000000
N2   N   0.777782794653469   0.055558063993331   0.622670391961870   1.0000000
N2   N   0.277782996201915   0.055563814606453   0.128565739342559   1.0000000
N2   N   0.444456288715262   0.555543711284983   0.129511712765953   1.0000000
N2   N   0.777754089236141   0.555543711284983   0.129511712765951   1.0000000
N2   N   0.611130634723764   0.055546976783610   0.127636849520432   1.0000000
N2   N   0.444456288715262   0.555543711284983   0.620488287234118   1.0000000
N2   N   0.944441936006709   0.055558063993331   0.127329608037893   1.0000000
N2   N   0.277784819677417   0.722215180322618   0.622137768313995   1.0000000
N2   N   0.111075990246339   0.222204661789794   0.622470533538479   1.0000000
N2   N   0.444456288715262   0.222245910763907   0.620488287234118   1.0000000
N2   N   0.611136988626438   0.722273479282775   0.621553334465004   1.0000000
N2   N   0.944436185393684   0.722217003797970   0.621434260657534   1.0000000
N2   N   0.777795338210283   0.222204661789794   0.622470533538479   1.0000000
N2   N   0.111097027311738   0.722215180322618   0.127862231685913   1.0000000
N2   N   0.444447485071170   0.722217003797970   0.128565739342559   1.0000000
N2   N   0.277726520717328   0.222196842677140   0.128446665534971   1.0000000
N2   N   0.777803157322814   0.722273479282775   0.128446665534975   1.0000000
N2   N   0.611136988626439   0.222196842677140   0.128446665534976   1.0000000
N2   N   0.944441936006709   0.222217205346629   0.127329608037882   1.0000000
N2   N   0.111083008726586   0.388869365276311   0.622363150479612   1.0000000
N2   N   0.277784819677417   0.888902972688163   0.622137768313997   1.0000000
N2   N   0.611130634723764   0.888916991273499   0.622363150479612   1.0000000
N2   N   0.444296156493001   0.388814744913167   0.622251572002265   1.0000000
N2   N   0.944453023216319   0.888916991273499   0.622363150479612   1.0000000
N2   N   0.111106732186154   0.888893267813713   0.127813026050471   1.0000000
N2   N   0.777803157322814   0.388863011373454   0.621553334465004   1.0000000
N2   N   0.444453202294295   0.888893267813713   0.127813026050469   1.0000000
N2   N   0.277726520717328   0.388863011373454   0.128446665534971   1.0000000
N2   N   0.277782996201915   0.555552514928889   0.128565739342557   1.0000000
N2   N   0.611185255086698   0.388814744913172   0.127748427997840   1.0000000
N2   N   0.777795338210283   0.888924009753555   0.127529466461442   1.0000000
N2   N   0.944453023216319   0.388869365276311   0.127636849520432   1.0000000
N2   N   0.111106732186154   0.555546797705595   0.622186973949322   1.0000000
N2   N   0.277782996201915   0.055563814606460   0.621434260657570   1.0000000
N2   N   0.777754089236141   0.555543711284983   0.620488287234118   1.0000000
N2   N   0.611130634723764   0.055546976783610   0.622363150479612   1.0000000
N2   N   0.944441936006709   0.055558063993331   0.622670391961870   1.0000000
N2   N   0.054471725976683   0.110384195197257   0.375000000000000   1.0000000
N2   N   0.555676547827739   0.620492807771704   0.375000000000000   1.0000000
N2   N   0.387607684589619   0.108548702512563   0.375000000000000   1.0000000
N2   N   0.891451297487419   0.612392315410531   0.375000000000000   1.0000000
N2   N   0.722579135887371   0.110384195197258   0.375000000000000   1.0000000
N2   N   0.055554181615531   0.777769917274230   0.875000000000000   1.0000000
N2   N   0.388882402325343   0.777769917274230   0.875000000000000   1.0000000
N2   N   0.222244325935222   0.277788829634305   0.875000000000000   1.0000000
N2   N   0.722211170365615   0.777755674064726   0.875000000000000   1.0000000
N2   N   0.555540646516701   0.277772113859448   0.875000000000000   1.0000000
N2   N   0.888894584166427   0.277787640870849   0.875000000000000   1.0000000
N2   N   0.222222222222221   0.777777777777779   0.375000000000000   1.0000000
N2   N   0.054471725976691   0.277420864112761   0.375000000000000   1.0000000
N2   N   0.379507192228059   0.268517073388962   0.375000000000000   1.0000000
N2   N   0.555139233329390   0.781459770343190   0.375000000000000   1.0000000
N2   N   0.892987203680491   0.781459770343190   0.375000000000000   1.0000000
N2   N   0.723965465225545   0.276034534774199   0.375000000000000   1.0000000
N2   N   0.055561884775493   0.944438115224591   0.875000000000000   1.0000000
N2   N   0.388882402325343   0.944445818384434   0.875000000000000   1.0000000
N2   N   0.222228119544977   0.444452471598957   0.875000000000000   1.0000000
N2   N   0.555555555555557   0.444444444444443   0.875000000000000   1.0000000
N2   N   0.722212359129025   0.944440276628826   0.875000000000000   1.0000000
N2   N   0.888891018720825   0.444452471598957   0.875000000000000   1.0000000
N2   N   0.055737981554143   0.444809296441676   0.375000000000000   1.0000000
N2   N   0.221822793117167   0.943397809339130   0.375000000000000   1.0000000
N2   N   0.555190703558424   0.944262018445705   0.375000000000000   1.0000000
N2   N   0.379507192228058   0.444323452172518   0.375000000000000   1.0000000
N2   N   0.889615804802709   0.945528274023345   0.375000000000000   1.0000000
N2   N   0.731482926611343   0.444323452172517   0.375000000000000   1.0000000
N2   N   0.222230082725834   0.611117597674481   0.875000000000000   1.0000000
N2   N   0.055559723371254   0.111105415833692   0.875000000000000   1.0000000
N2   N   0.555540646516701   0.611101865990543   0.875000000000000   1.0000000
N2   N   0.388885737870089   0.111104809073550   0.875000000000000   1.0000000
N2   N   0.888895190926480   0.611114262129847   0.875000000000000   1.0000000
N2   N   0.056602190660965   0.611758317111401   0.375000000000000   1.0000000
N2   N   0.722212359129026   0.111105415833692   0.875000000000000   1.0000000
N2   N   0.218540229656804   0.107012796319590   0.375000000000000   1.0000000
N2   N   0.387607684589619   0.612392315410531   0.375000000000000   1.0000000
N2   N   0.731482926611343   0.620492807771704   0.375000000000000   1.0000000
N2   N   0.555139233329390   0.107012796319590   0.375000000000000   1.0000000
N2   N   0.388885737870089   0.611114262129847   0.875000000000000   1.0000000
N2   N   0.888888888888886   0.111111111111114   0.375000000000000   1.0000000
N2   N   0.222222222222221   0.777777777777779   0.875000000000000   1.0000000
N2   N   0.055559723371254   0.277787640870849   0.875000000000000   1.0000000
N2   N   0.388898134009511   0.277772113859448   0.875000000000000   1.0000000
N2   N   0.555547528400853   0.777771880455079   0.875000000000000   1.0000000
N2   N   0.888891018720825   0.777771880455079   0.875000000000000   1.0000000
N2   N   0.722211170365615   0.277788829634305   0.875000000000000   1.0000000
N2   N   0.056602190660965   0.778177206882970   0.375000000000000   1.0000000
N2   N   0.388241682888564   0.778177206882970   0.375000000000000   1.0000000
N2   N   0.218735736215187   0.276034534774199   0.375000000000000   1.0000000
N2   N   0.723965465225545   0.781264263784938   0.375000000000000   1.0000000
N2   N   0.555676547827739   0.268517073388962   0.375000000000000   1.0000000
N2   N   0.889615804802709   0.277420864112761   0.375000000000000   1.0000000
N2   N   0.055561884775493   0.444457102884472   0.875000000000000   1.0000000
N2   N   0.222230082725834   0.944445818384434   0.875000000000000   1.0000000
N2   N   0.555542897115722   0.944438115224591   0.875000000000000   1.0000000
N2   N   0.388898134009511   0.444459353483458   0.875000000000000   1.0000000
N2   N   0.888894584166427   0.944440276628826   0.875000000000000   1.0000000
N2   N   0.055737981554143   0.944262018445705   0.375000000000000   1.0000000
N2   N   0.722227886140238   0.444459353483458   0.875000000000000   1.0000000
N2   N   0.388241682888564   0.943397809339130   0.375000000000000   1.0000000
N2   N   0.218540229656804   0.444860766670558   0.375000000000000   1.0000000
N2   N   0.221822793117167   0.611758317111401   0.375000000000000   1.0000000
N2   N   0.722579135887371   0.945528274023346   0.375000000000000   1.0000000
N2   N   0.892987203680491   0.444860766670558   0.375000000000000   1.0000000
N2   N   0.055554181615532   0.611117597674481   0.875000000000000   1.0000000
N2   N   0.222228119544977   0.111108981279305   0.875000000000000   1.0000000
N2   N   0.722227886140238   0.611101865990543   0.875000000000000   1.0000000
N2   N   0.555547528400853   0.111108981279305   0.875000000000000   1.0000000
N2   N   0.888888888888886   0.111111111111114   0.875000000000000   1.0000000
B2   B   0.108907698805638   0.053846325807749   0.375000000000000   1.0000000
B2   B   0.623822860825296   0.580979054983997   0.375000000000000   1.0000000
B2   B   0.443725399740824   0.053673056941495   0.375000000000000   1.0000000
B2   B   0.946326943058811   0.556274600259187   0.375000000000000   1.0000000
B2   B   0.778138953755447   0.055736143544275   0.375000000000000   1.0000000
B2   B   0.111012608049433   0.722172970691491   0.875000000000000   1.0000000
B2   B   0.444358089410389   0.722163068175221   0.875000000000000   1.0000000
B2   B   0.277864226469323   0.222335257471160   0.875000000000000   1.0000000
B2   B   0.777664742528797   0.722135773530955   0.875000000000000   1.0000000
B2   B   0.611137697668650   0.222335257471160   0.875000000000000   1.0000000
B2   B   0.944493046106725   0.222319425546460   0.875000000000000   1.0000000
B2   B   0.277561163299551   0.722438836700363   0.375000000000000   1.0000000
B2   B   0.108844349378562   0.221088841355957   0.375000000000000   1.0000000
B2   B   0.442865734896870   0.219064803127076   0.375000000000000   1.0000000
B2   B   0.612219442939651   0.729252934325291   0.375000000000000   1.0000000
B2   B   0.946326943058810   0.723385676132670   0.375000000000000   1.0000000
B2   B   0.778911158644195   0.221088841355957   0.375000000000000   1.0000000
B2   B   0.111112207530628   0.888887792469351   0.875000000000000   1.0000000
B2   B   0.444442251605423   0.888887792469351   0.875000000000000   1.0000000
B2   B   0.277864226469325   0.388862302331492   0.875000000000000   1.0000000
B2   B   0.611130385482177   0.388869614517650   0.875000000000000   1.0000000
B2   B   0.777764997439186   0.888863328211866   0.875000000000000   1.0000000
B2   B   0.944484170937697   0.388855619713747   0.875000000000000   1.0000000
B2   B   0.108907698805643   0.388394706331276   0.375000000000000   1.0000000
B2   B   0.277561163299551   0.888455659932431   0.375000000000000   1.0000000
B2   B   0.611605293668819   0.891092301194494   0.375000000000000   1.0000000
B2   B   0.419020945015769   0.376177139174666   0.375000000000000   1.0000000
B2   B   0.946153674192319   0.891092301194494   0.375000000000000   1.0000000
B2   B   0.783700158052547   0.387780557060465   0.375000000000000   1.0000000
B2   B   0.277836931824965   0.555641910589756   0.875000000000000   1.0000000
B2   B   0.111038115442908   0.055515829062463   0.875000000000000   1.0000000
B2   B   0.611130385482177   0.555594104298028   0.875000000000000   1.0000000
B2   B   0.444358089410389   0.055528354568625   0.875000000000000   1.0000000
B2   B   0.944471645431414   0.555641910589756   0.875000000000000   1.0000000
B2   B   0.111270910640465   0.555875154614293   0.375000000000000   1.0000000
B2   B   0.777680574453675   0.055506953893422   0.875000000000000   1.0000000
B2   B   0.276614323867519   0.053673056941495   0.375000000000000   1.0000000
B2   B   0.442865734896874   0.557134265103053   0.375000000000000   1.0000000
B2   B   0.780935196872925   0.557134265103053   0.375000000000000   1.0000000
B2   B   0.611605293668819   0.053846325807749   0.375000000000000   1.0000000
B2   B   0.444458569480166   0.555541430520114   0.875000000000000   1.0000000
B2   B   0.944263856455749   0.055736143544275   0.375000000000000   1.0000000
B2   B   0.277827029308622   0.722172970691491   0.875000000000000   1.0000000
B2   B   0.111136671788272   0.222235002560826   0.875000000000000   1.0000000
B2   B   0.444458569480166   0.222250472293670   0.875000000000000   1.0000000
B2   B   0.611137697668650   0.722135773530955   0.875000000000000   1.0000000
B2   B   0.944471645431414   0.722163068175221   0.875000000000000   1.0000000
B2   B   0.777764997439186   0.222235002560826   0.875000000000000   1.0000000
B2   B   0.111544340067453   0.722438836700293   0.375000000000000   1.0000000
B2   B   0.443725399740824   0.723385676132670   0.375000000000000   1.0000000
B2   B   0.270747065674690   0.216299841947690   0.375000000000000   1.0000000
B2   B   0.783700158052540   0.729252934325291   0.375000000000000   1.0000000
B2   B   0.612219442939652   0.216299841947688   0.375000000000000   1.0000000
B2   B   0.944263856455749   0.221861046244798   0.375000000000000   1.0000000
B2   B   0.111038115442908   0.388855619713747   0.875000000000000   1.0000000
B2   B   0.277827029308622   0.888987391950573   0.875000000000000   1.0000000
B2   B   0.611144380286053   0.888961884557074   0.875000000000000   1.0000000
B2   B   0.444405895702000   0.388869614517650   0.875000000000000   1.0000000
B2   B   0.944484170937697   0.888961884557074   0.875000000000000   1.0000000
B2   B   0.111270910640465   0.888729089359758   0.375000000000000   1.0000000
B2   B   0.777664742528797   0.388862302331492   0.875000000000000   1.0000000
B2   B   0.444124845385730   0.888729089359758   0.375000000000000   1.0000000
B2   B   0.270747065674690   0.387780557060465   0.375000000000000   1.0000000
B2   B   0.276614323867519   0.556274600259187   0.375000000000000   1.0000000
B2   B   0.623822860825296   0.376177139174666   0.375000000000000   1.0000000
B2   B   0.778911158644195   0.891155650621865   0.375000000000000   1.0000000
B2   B   0.946153674192319   0.388394706331276   0.375000000000000   1.0000000
B2   B   0.111112207530628   0.555557748394413   0.875000000000000   1.0000000
B2   B   0.277836931824965   0.055528354568624   0.875000000000000   1.0000000
B2   B   0.777749527706331   0.555541430520114   0.875000000000000   1.0000000
B2   B   0.611144380286053   0.055515829062463   0.875000000000000   1.0000000
B2   B   0.944493046106725   0.055506953893422   0.875000000000000   1.0000000
B2   B   0.055499477200356   0.111010536205476   0.127560529550187   1.0000000
B2   B   0.555749447650206   0.611121618590648   0.128824143912865   1.0000000
B2   B   0.388885411084124   0.111104155501693   0.129172788065068   1.0000000
B2   B   0.888895844498410   0.611114588915806   0.129172788065071   1.0000000
B2   B   0.722177725671896   0.111010536205476   0.127560529550187   1.0000000
B2   B   0.055457537107623   0.777651521569341   0.621839570589652   1.0000000
B2   B   0.388860651128493   0.777651521569341   0.621839570589652   1.0000000
B2   B   0.222347969847587   0.277840651590504   0.621772622344086   1.0000000
B2   B   0.722159348409625   0.777652030152328   0.621772622344086   1.0000000
B2   B   0.555749447650206   0.277961162392997   0.621175856086953   1.0000000
B2   B   0.888989463794396   0.277822274328239   0.622439470449686   1.0000000
B2   B   0.222222222222221   0.777777777777779   0.127833932743775   1.0000000
B2   B   0.055499477200356   0.277822274328239   0.127560529550187   1.0000000
B2   B   0.388878381409430   0.277961162392997   0.128824143912865   1.0000000
B2   B   0.555587209179464   0.777761237993796   0.128353228346563   1.0000000
B2   B   0.888840695480772   0.777761237993796   0.128353228346563   1.0000000
B2   B   0.722159348409625   0.277840651590504   0.128227377656087   1.0000000
B2   B   0.055485027427700   0.944514972572367   0.622238729634552   1.0000000
B2   B   0.388860651128493   0.944542462892510   0.621839570589652   1.0000000
B2   B   0.222238762006277   0.444412790820454   0.621646771653447   1.0000000
B2   B   0.555555555555557   0.444444444444443   0.620229820830869   1.0000000
B2   B   0.722177725671896   0.944500522799569   0.622439470449686   1.0000000
B2   B   0.888840695480772   0.444412790820454   0.621646771653447   1.0000000
B2   B   0.055485027427700   0.444303388188707   0.127761270365679   1.0000000
B2   B   0.222348478430543   0.944542462892510   0.128160429410543   1.0000000
B2   B   0.555696611811338   0.944514972572367   0.127761270365679   1.0000000
B2   B   0.388878381409430   0.444250552349752   0.128824143912863   1.0000000
B2   B   0.888989463794396   0.944500522799569   0.127560529550187   1.0000000
B2   B   0.722038837606822   0.444250552349752   0.128824143912863   1.0000000
B2   B   0.222348478430543   0.611139348871662   0.621839570589652   1.0000000
B2   B   0.055499477200356   0.111010536205476   0.622439470449706   1.0000000
B2   B   0.555749447650206   0.611121618590648   0.621175856086988   1.0000000
B2   B   0.388885411084124   0.111104155501693   0.620827211934887   1.0000000
B2   B   0.888895844498410   0.611114588915806   0.620827211934887   1.0000000
B2   B   0.055457537107622   0.611139348871662   0.128160429410543   1.0000000
B2   B   0.722177725671896   0.111010536205476   0.622439470449706   1.0000000
B2   B   0.222238762006277   0.111159304519180   0.128353228346563   1.0000000
B2   B   0.388885411084124   0.611114588915806   0.129172788065067   1.0000000
B2   B   0.722038837606822   0.611121618590648   0.128824143912863   1.0000000
B2   B   0.555587209179464   0.111159304519182   0.128353228346563   1.0000000
B2   B   0.388885411084124   0.611114588915806   0.620827211934887   1.0000000
B2   B   0.888888888888886   0.111111111111114   0.127427476335008   1.0000000
B2   B   0.222222222222221   0.777777777777779   0.622166067256467   1.0000000
B2   B   0.055499477200358   0.277822274328239   0.622439470449706   1.0000000
B2   B   0.388878381409430   0.277961162392997   0.621175856086953   1.0000000
B2   B   0.555587209179464   0.777761237993796   0.621646771653447   1.0000000
B2   B   0.888840695480772   0.777761237993796   0.621646771653447   1.0000000
B2   B   0.722159348409625   0.277840651590504   0.621772622344086   1.0000000
B2   B   0.055457537107623   0.777651521569341   0.128160429410543   1.0000000
B2   B   0.388860651128493   0.777651521569341   0.128160429410543   1.0000000
B2   B   0.222347969847587   0.277840651590524   0.128227377656087   1.0000000
B2   B   0.722159348409625   0.777652030152289   0.128227377656087   1.0000000
B2   B   0.555749447650206   0.277961162392997   0.128824143912865   1.0000000
B2   B   0.888989463794396   0.277822274328239   0.127560529550187   1.0000000
B2   B   0.055485027427705   0.444303388188706   0.622238729634552   1.0000000
B2   B   0.222348478430543   0.944542462892510   0.621839570589652   1.0000000
B2   B   0.555696611811338   0.944514972572367   0.622238729634552   1.0000000
B2   B   0.388878381409430   0.444250552349752   0.621175856086988   1.0000000
B2   B   0.888989463794396   0.944500522799569   0.622439470449706   1.0000000
B2   B   0.055485027427700   0.944514972572367   0.127761270365679   1.0000000
B2   B   0.722038837606822   0.444250552349752   0.621175856086988   1.0000000
B2   B   0.388860651128493   0.944542462892510   0.128160429410543   1.0000000
B2   B   0.222238762006277   0.444412790820454   0.128353228346563   1.0000000
B2   B   0.222348478430543   0.611139348871662   0.128160429410543   1.0000000
B2   B   0.555555555555557   0.444444444444443   0.129770179169100   1.0000000
B2   B   0.722177725671896   0.944500522799569   0.127560529550187   1.0000000
B2   B   0.888840695480772   0.444412790820454   0.128353228346563   1.0000000
B2   B   0.055457537107623   0.611139348871662   0.621839570589652   1.0000000
B2   B   0.222238762006277   0.111159304519175   0.621646771653447   1.0000000
B2   B   0.722038837606822   0.611121618590648   0.621175856086896   1.0000000
B2   B   0.555587209179464   0.111159304519181   0.621646771653447   1.0000000
B2   B   0.888888888888886   0.111111111111114   0.622572523664891   1.0000000


