data_1
_audit_creation_method   'vasp2cif'
_cell_length_a    14.93631414619966
_cell_length_b    14.936314146199727
_cell_length_c    13.341276283792837
_cell_angle_alpha    90.0
_cell_angle_beta    90.0
_cell_angle_gamma    119.99999999999984

_symmetry_space_group_name_H-M    'P 1'
loop_
_atom_site_label
_atom_site_type_symbol
_atom_site_fract_x
_atom_site_fract_y
_atom_site_fract_z
_atom_site_occupancy
Sn2   Sn   0.555555555555557   0.444444444444443   0.375000000000000   1.0000000
N2   N   0.111070656749250   0.055547557994692   0.125464293820944   1.0000000
N2   N   0.611270982303500   0.555875297940357   0.123186267126248   1.0000000
N2   N   0.444460806925316   0.055576487855717   0.126138904739508   1.0000000
N2   N   0.944423512144346   0.555539193074650   0.126138904739508   1.0000000
N2   N   0.777791591459012   0.055562462396166   0.124397511970992   1.0000000
N2   N   0.111088788851225   0.722211061092228   0.624987614670713   1.0000000
N2   N   0.444460806925315   0.722217652402994   0.623861095260474   1.0000000
N2   N   0.277679645067377   0.222185864350929   0.623854082701768   1.0000000
N2   N   0.777814135649093   0.722320354932544   0.623854082701768   1.0000000
N2   N   0.611172885950250   0.222185864350929   0.623854082701768   1.0000000
N2   N   0.944437537603816   0.222208408540997   0.625602488028989   1.0000000
N2   N   0.277788938907702   0.722211061092228   0.125012385329262   1.0000000
N2   N   0.111025822474853   0.222179577904097   0.125366754903429   1.0000000
N2   N   0.444462482201549   0.222258297736492   0.126461597486452   1.0000000
N2   N   0.611172885950248   0.722320354932543   0.126145917298144   1.0000000
N2   N   0.944423512144346   0.722217652402994   0.126138904739508   1.0000000
N2   N   0.777820422095931   0.222179577904097   0.125366754903429   1.0000000
N2   N   0.111101271839334   0.888898728160630   0.624834835055934   1.0000000
N2   N   0.444464122988015   0.888898728160630   0.624834835055934   1.0000000
N2   N   0.277679645067378   0.388827114049796   0.623854082701768   1.0000000
N2   N   0.611270982303495   0.388729017696484   0.626813732873752   1.0000000
N2   N   0.777820422095930   0.888974177525169   0.624633245096542   1.0000000
N2   N   0.944452442005317   0.388856432087910   0.624535706179025   1.0000000
N2   N   0.111070656749251   0.388856432087910   0.125464293820946   1.0000000
N2   N   0.277788938907702   0.888911211148732   0.125012385329263   1.0000000
N2   N   0.611143567912123   0.888929343250795   0.125464293820946   1.0000000
N2   N   0.444124702059678   0.388729017696486   0.123186267126245   1.0000000
N2   N   0.944452442005317   0.888929343250795   0.125464293820944   1.0000000
N2   N   0.777814135649093   0.388827114049796   0.126145917298147   1.0000000
N2   N   0.277782347597097   0.555539193074650   0.623861095260474   1.0000000
N2   N   0.111070656749251   0.055547557994692   0.624535706179025   1.0000000
N2   N   0.611270982303499   0.555875297940357   0.626813732873750   1.0000000
N2   N   0.444460806925315   0.055576487855716   0.623861095260476   1.0000000
N2   N   0.944423512144346   0.555539193074650   0.623861095260474   1.0000000
N2   N   0.111101271839333   0.555535877011960   0.125165164944044   1.0000000
N2   N   0.777791591459012   0.055562462396166   0.625602488028989   1.0000000
N2   N   0.277782347597097   0.055576487855717   0.126138904739508   1.0000000
N2   N   0.444462482201549   0.555537517798334   0.126461597486451   1.0000000
N2   N   0.777741702263568   0.555537517798334   0.126461597486451   1.0000000
N2   N   0.611143567912123   0.055547557994691   0.125464293820944   1.0000000
N2   N   0.444462482201549   0.555537517798334   0.623538402513504   1.0000000
N2   N   0.944437537603816   0.055562462396166   0.124397511970992   1.0000000
N2   N   0.277788938907702   0.722211061092228   0.624987614670713   1.0000000
N2   N   0.111025822474854   0.222179577904097   0.624633245096542   1.0000000
N2   N   0.444462482201549   0.222258297736492   0.623538402513487   1.0000000
N2   N   0.611172885950248   0.722320354932543   0.623854082701768   1.0000000
N2   N   0.944423512144346   0.722217652402994   0.623861095260480   1.0000000
N2   N   0.777820422095930   0.222179577904097   0.624633245096542   1.0000000
N2   N   0.111088788851224   0.722211061092228   0.125012385329262   1.0000000
N2   N   0.444460806925315   0.722217652402994   0.126138904739508   1.0000000
N2   N   0.277679645067383   0.222185864350929   0.126145917298144   1.0000000
N2   N   0.777814135649092   0.722320354932543   0.126145917298153   1.0000000
N2   N   0.611172885950248   0.222185864350928   0.126145917298145   1.0000000
N2   N   0.944437537603816   0.222208408540997   0.124397511970992   1.0000000
N2   N   0.111070656749251   0.388856432087910   0.624535706179025   1.0000000
N2   N   0.277788938907702   0.888911211148732   0.624987614670713   1.0000000
N2   N   0.611143567912123   0.888929343250795   0.624535706179025   1.0000000
N2   N   0.444124702059680   0.388729017696486   0.626813732873749   1.0000000
N2   N   0.944452442005317   0.888929343250795   0.624535706179025   1.0000000
N2   N   0.111101271839334   0.888898728160630   0.125165164944044   1.0000000
N2   N   0.777814135649092   0.388827114049796   0.623854082701767   1.0000000
N2   N   0.444464122988015   0.888898728160630   0.125165164944053   1.0000000
N2   N   0.277679645067378   0.388827114049796   0.126145917298153   1.0000000
N2   N   0.277782347597097   0.555539193074650   0.126138904739508   1.0000000
N2   N   0.611270982303499   0.388729017696486   0.123186267126252   1.0000000
N2   N   0.777820422095930   0.888974177525153   0.125366754903429   1.0000000
N2   N   0.944452442005317   0.388856432087910   0.125464293820944   1.0000000
N2   N   0.111101271839333   0.555535877011960   0.624834835055934   1.0000000
N2   N   0.277782347597097   0.055576487855716   0.623861095260474   1.0000000
N2   N   0.777741702263567   0.555537517798334   0.623538402513504   1.0000000
N2   N   0.611143567912123   0.055547557994691   0.624535706179025   1.0000000
N2   N   0.944437537603816   0.055562462396166   0.625602488028989   1.0000000
N2   N   0.053957101569076   0.110043935229845   0.375000000000000   1.0000000
N2   N   0.555641138141890   0.624680466846970   0.375000000000000   1.0000000
N2   N   0.387013155314399   0.107359643962174   0.375000000000000   1.0000000
N2   N   0.892640356037844   0.612986844685568   0.375000000000000   1.0000000
N2   N   0.722753500327406   0.110043935229845   0.375000000000000   1.0000000
N2   N   0.055550234726766   0.777764186409439   0.875000000000000   1.0000000
N2   N   0.388880618349406   0.777764186409439   0.875000000000000   1.0000000
N2   N   0.222254112003871   0.277793722668588   0.875000000000000   1.0000000
N2   N   0.722206277331367   0.777745887996160   0.875000000000000   1.0000000
N2   N   0.555541472842259   0.277761852309516   0.875000000000000   1.0000000
N2   N   0.888898965565370   0.277789339755980   0.875000000000000   1.0000000
N2   N   0.222222222222221   0.777777777777779   0.375000000000000   1.0000000
N2   N   0.053957101569076   0.277246499672571   0.375000000000000   1.0000000
N2   N   0.375319533153079   0.264294004628312   0.375000000000000   1.0000000
N2   N   0.554893379987142   0.783242849692829   0.375000000000000   1.0000000
N2   N   0.895016136372263   0.783242849692829   0.375000000000000   1.0000000
N2   N   0.724795274678973   0.275204725321029   0.375000000000000   1.0000000
N2   N   0.055552761658332   0.944447238341707   0.875000000000000   1.0000000
N2   N   0.388880618349406   0.944449765273279   0.875000000000000   1.0000000
N2   N   0.222224227669550   0.444452864815375   0.875000000000000   1.0000000
N2   N   0.555555555555557   0.444444444444443   0.875000000000000   1.0000000
N2   N   0.722210660243958   0.944442959142656   0.875000000000000   1.0000000
N2   N   0.888895303812436   0.444452864815374   0.875000000000000   1.0000000
N2   N   0.055866109726466   0.445065552786251   0.375000000000000   1.0000000
N2   N   0.221647514309973   0.942894886934327   0.375000000000000   1.0000000
N2   N   0.554934447213729   0.944133890273521   0.375000000000000   1.0000000
N2   N   0.375319533153070   0.444358861858100   0.375000000000000   1.0000000
N2   N   0.889956064770110   0.946042898430889   0.375000000000000   1.0000000
N2   N   0.735705995371739   0.444358861858099   0.375000000000000   1.0000000
N2   N   0.222235813590522   0.611119381650620   0.875000000000000   1.0000000
N2   N   0.055557040857294   0.111101034434641   0.875000000000000   1.0000000
N2   N   0.555541472842259   0.611112953866206   0.875000000000000   1.0000000
N2   N   0.388877942532600   0.111089218398593   0.875000000000000   1.0000000
N2   N   0.888910781601459   0.611122057467439   0.875000000000000   1.0000000
N2   N   0.057105113065647   0.612085960708967   0.375000000000000   1.0000000
N2   N   0.722210660243958   0.111101034434641   0.875000000000000   1.0000000
N2   N   0.216757150307280   0.104983863627750   0.375000000000000   1.0000000
N2   N   0.387013155314400   0.612986844685568   0.375000000000000   1.0000000
N2   N   0.735705995371748   0.624680466846943   0.375000000000000   1.0000000
N2   N   0.554893379987138   0.104983863627750   0.375000000000000   1.0000000
N2   N   0.388877942532600   0.611122057467439   0.875000000000000   1.0000000
N2   N   0.888888888888886   0.111111111111114   0.375000000000000   1.0000000
N2   N   0.222222222222221   0.777777777777779   0.875000000000000   1.0000000
N2   N   0.055557040857293   0.277789339755980   0.875000000000000   1.0000000
N2   N   0.388887046133862   0.277761852309516   0.875000000000000   1.0000000
N2   N   0.555547135184627   0.777775772330432   0.875000000000000   1.0000000
N2   N   0.888895303812436   0.777775772330432   0.875000000000000   1.0000000
N2   N   0.722206277331367   0.277793722668588   0.875000000000000   1.0000000
N2   N   0.057105113065647   0.778352485690043   0.375000000000000   1.0000000
N2   N   0.387914039291001   0.778352485690042   0.375000000000000   1.0000000
N2   N   0.217076117308650   0.275204725321026   0.375000000000000   1.0000000
N2   N   0.724795274678973   0.782923882691284   0.375000000000000   1.0000000
N2   N   0.555641138141890   0.264294004628313   0.375000000000000   1.0000000
N2   N   0.889956064770110   0.277246499672571   0.375000000000000   1.0000000
N2   N   0.055552761658332   0.444438856649994   0.875000000000000   1.0000000
N2   N   0.222235813590522   0.944449765273279   0.875000000000000   1.0000000
N2   N   0.555561143349993   0.944447238341707   0.875000000000000   1.0000000
N2   N   0.388887046133862   0.444458527157660   0.875000000000000   1.0000000
N2   N   0.888898965565363   0.944442959142659   0.875000000000000   1.0000000
N2   N   0.055866109726465   0.944133890273521   0.375000000000000   1.0000000
N2   N   0.722238147690513   0.444458527157660   0.875000000000000   1.0000000
N2   N   0.387914039291001   0.942894886934326   0.375000000000000   1.0000000
N2   N   0.216757150307280   0.445106620012857   0.375000000000000   1.0000000
N2   N   0.221647514309974   0.612085960708967   0.375000000000000   1.0000000
N2   N   0.722753500327406   0.946042898430889   0.375000000000000   1.0000000
N2   N   0.895016136372263   0.445106620012854   0.375000000000000   1.0000000
N2   N   0.055550234726766   0.611119381650632   0.875000000000000   1.0000000
N2   N   0.222224227669550   0.111104696187537   0.875000000000000   1.0000000
N2   N   0.722238147690513   0.611112953866206   0.875000000000000   1.0000000
N2   N   0.555547135184626   0.111104696187537   0.875000000000000   1.0000000
N2   N   0.888888888888886   0.111111111111114   0.875000000000000   1.0000000
B2   B   0.108133690822395   0.053179313051079   0.375000000000000   1.0000000
B2   B   0.627810223469468   0.588953780272230   0.375000000000000   1.0000000
B2   B   0.443681581026444   0.053076827479769   0.375000000000000   1.0000000
B2   B   0.946923172520263   0.556318418973600   0.375000000000000   1.0000000
B2   B   0.778396652883817   0.055864993108541   0.375000000000000   1.0000000
B2   B   0.111010431940676   0.722171882637027   0.875000000000000   1.0000000
B2   B   0.444369673904522   0.722146909970949   0.875000000000000   1.0000000
B2   B   0.277924221840861   0.222368237772331   0.875000000000000   1.0000000
B2   B   0.777631762227695   0.722075778159147   0.875000000000000   1.0000000
B2   B   0.611110682598125   0.222368237772331   0.875000000000000   1.0000000
B2   B   0.944496044026888   0.222325421387206   0.875000000000000   1.0000000
B2   B   0.277406445634023   0.722593554365991   0.375000000000000   1.0000000
B2   B   0.108019339006570   0.220676336169946   0.375000000000000   1.0000000
B2   B   0.442409530794492   0.218152394922285   0.375000000000000   1.0000000
B2   B   0.612323172888156   0.731843140561368   0.375000000000000   1.0000000
B2   B   0.946923172520239   0.723938086879942   0.375000000000000   1.0000000
B2   B   0.779323663830065   0.220676336169946   0.375000000000000   1.0000000
B2   B   0.111111599808300   0.888888400191736   0.875000000000000   1.0000000
B2   B   0.444443467050088   0.888888400191736   0.875000000000000   1.0000000
B2   B   0.277924221840861   0.388889317401863   0.875000000000000   1.0000000
B2   B   0.611090782450601   0.388909217549409   0.875000000000000   1.0000000
B2   B   0.777743376394507   0.888820086122334   0.875000000000000   1.0000000
B2   B   0.944467756104241   0.388869135182743   0.875000000000000   1.0000000
B2   B   0.108133690822395   0.388287711104657   0.375000000000000   1.0000000
B2   B   0.277406445634023   0.888146224601375   0.375000000000000   1.0000000
B2   B   0.611712288895370   0.891866309177568   0.375000000000000   1.0000000
B2   B   0.411046219727800   0.372189776530556   0.375000000000000   1.0000000
B2   B   0.946820686948984   0.891866309177568   0.375000000000000   1.0000000
B2   B   0.786186634339900   0.387676827111849   0.375000000000000   1.0000000
B2   B   0.277853090029084   0.555630326095452   0.875000000000000   1.0000000
B2   B   0.111068045745117   0.055532243895704   0.875000000000000   1.0000000
B2   B   0.611090782450601   0.555514898234511   0.875000000000000   1.0000000
B2   B   0.444369673904521   0.055556097266923   0.875000000000000   1.0000000
B2   B   0.944443902733086   0.555630326095452   0.875000000000000   1.0000000
B2   B   0.111343974267074   0.556021281867493   0.375000000000000   1.0000000
B2   B   0.777674578612837   0.055503955973070   0.875000000000000   1.0000000
B2   B   0.276061913120007   0.053076827479768   0.375000000000000   1.0000000
B2   B   0.442409530794492   0.557590469205560   0.375000000000000   1.0000000
B2   B   0.781847605077681   0.557590469205560   0.375000000000000   1.0000000
B2   B   0.611712288895370   0.053179313051079   0.375000000000000   1.0000000
B2   B   0.444481426240263   0.555518573759753   0.875000000000000   1.0000000
B2   B   0.944135006891463   0.055864993108541   0.375000000000000   1.0000000
B2   B   0.277828117363005   0.722171882637023   0.875000000000000   1.0000000
B2   B   0.111179913877664   0.222256623605492   0.875000000000000   1.0000000
B2   B   0.444481426240263   0.222296185813786   0.875000000000000   1.0000000
B2   B   0.611110682598121   0.722075778159147   0.875000000000000   1.0000000
B2   B   0.944443902733086   0.722146909970949   0.875000000000000   1.0000000
B2   B   0.777743376394507   0.222256623605491   0.875000000000000   1.0000000
B2   B   0.111853775398673   0.722593554365990   0.375000000000000   1.0000000
B2   B   0.443681581026443   0.723938086879942   0.375000000000000   1.0000000
B2   B   0.268156859438632   0.213813365660086   0.375000000000000   1.0000000
B2   B   0.786186634339902   0.731843140561367   0.375000000000000   1.0000000
B2   B   0.612323172888150   0.213813365660090   0.375000000000000   1.0000000
B2   B   0.944135006891463   0.221603347116253   0.375000000000000   1.0000000
B2   B   0.111068045745117   0.388869135182742   0.875000000000000   1.0000000
B2   B   0.277828117363005   0.888989568059339   0.875000000000000   1.0000000
B2   B   0.611130864817222   0.888931954254924   0.875000000000000   1.0000000
B2   B   0.444485101765501   0.388909217549409   0.875000000000000   1.0000000
B2   B   0.944467756104241   0.888931954254924   0.875000000000000   1.0000000
B2   B   0.111343974267074   0.888656025732904   0.375000000000000   1.0000000
B2   B   0.777631762227695   0.388889317401864   0.875000000000000   1.0000000
B2   B   0.443978718132541   0.888656025732904   0.375000000000000   1.0000000
B2   B   0.268156859438632   0.387676827111845   0.375000000000000   1.0000000
B2   B   0.276061913120009   0.556318418973601   0.375000000000000   1.0000000
B2   B   0.627810223469473   0.372189776530556   0.375000000000000   1.0000000
B2   B   0.779323663830065   0.891980660993387   0.375000000000000   1.0000000
B2   B   0.946820686948984   0.388287711104657   0.375000000000000   1.0000000
B2   B   0.111111599808300   0.555556532949931   0.875000000000000   1.0000000
B2   B   0.277853090029084   0.055556097266923   0.875000000000000   1.0000000
B2   B   0.777703814186138   0.555518573759753   0.875000000000000   1.0000000
B2   B   0.611130864817222   0.055532243895703   0.875000000000000   1.0000000
B2   B   0.944496044026888   0.055503955973070   0.875000000000000   1.0000000
B2   B   0.055532226933478   0.111080559507855   0.125121025338623   1.0000000
B2   B   0.555782463829208   0.610965151736641   0.125794133543016   1.0000000
B2   B   0.389006993550338   0.111347320434015   0.126633378844159   1.0000000
B2   B   0.888652679565977   0.610993006449611   0.126633378844159   1.0000000
B2   B   0.722214999241025   0.111080559507855   0.125121025338623   1.0000000
B2   B   0.055422874039727   0.777674667720198   0.624545636987933   1.0000000
B2   B   0.388918460347110   0.777674667720198   0.624545636987933   1.0000000
B2   B   0.222350343143337   0.277841838238316   0.623842146202806   1.0000000
B2   B   0.722158161761677   0.777649656856705   0.623842146202806   1.0000000
B2   B   0.555782463829208   0.278150645425908   0.624205866457002   1.0000000
B2   B   0.888919440492157   0.277785000758935   0.624878974661410   1.0000000
B2   B   0.222222222222221   0.777777777777779   0.124903575256065   1.0000000
B2   B   0.055532226933478   0.277785000758935   0.125121025338623   1.0000000
B2   B   0.389034848263358   0.278150645425911   0.125794133543018   1.0000000
B2   B   0.555627512023071   0.777708901430306   0.126173114238086   1.0000000
B2   B   0.888748056073885   0.777708901430306   0.126173114238087   1.0000000
B2   B   0.722158161761675   0.277841838238316   0.126157853797202   1.0000000
B2   B   0.055499394570061   0.944500605429915   0.624593500367069   1.0000000
B2   B   0.388918460347110   0.944577125960284   0.624545636987933   1.0000000
B2   B   0.222291098569678   0.444372487976887   0.623826885761933   1.0000000
B2   B   0.555555555555557   0.444444444444443   0.621505266516771   1.0000000
B2   B   0.722214999241025   0.944467773066535   0.624878974661410   1.0000000
B2   B   0.888748056073889   0.444372487976887   0.623826885761933   1.0000000
B2   B   0.055499394570061   0.444332122473456   0.125406499632959   1.0000000
B2   B   0.222325332279815   0.944577125960284   0.125454363012100   1.0000000
B2   B   0.555667877526571   0.944500605429915   0.125406499632959   1.0000000
B2   B   0.389034848263359   0.444217536170873   0.125794133543018   1.0000000
B2   B   0.888919440492157   0.944467773066536   0.125121025338623   1.0000000
B2   B   0.721849354574109   0.444217536170871   0.125794133543018   1.0000000
B2   B   0.222325332279814   0.611081539652970   0.624545636987933   1.0000000
B2   B   0.055532226933478   0.111080559507855   0.624878974661410   1.0000000
B2   B   0.555782463829203   0.610965151736641   0.624205866457002   1.0000000
B2   B   0.389006993550340   0.111347320434014   0.623366621155886   1.0000000
B2   B   0.888652679565977   0.610993006449611   0.623366621155878   1.0000000
B2   B   0.055422874039727   0.611081539652970   0.125454363012100   1.0000000
B2   B   0.722214999241025   0.111080559507855   0.624878974661410   1.0000000
B2   B   0.222291098569678   0.111251943926132   0.126173114238086   1.0000000
B2   B   0.389006993550340   0.610993006449611   0.126633378844159   1.0000000
B2   B   0.721849354574109   0.610965151736641   0.125794133543018   1.0000000
B2   B   0.555627512023071   0.111251943926131   0.126173114238087   1.0000000
B2   B   0.389006993550340   0.610993006449611   0.623366621155878   1.0000000
B2   B   0.888888888888886   0.111111111111114   0.124371300113287   1.0000000
B2   B   0.222222222222221   0.777777777777779   0.625096424743870   1.0000000
B2   B   0.055532226933478   0.277785000758935   0.624878974661410   1.0000000
B2   B   0.389034848263352   0.278150645425909   0.624205866457002   1.0000000
B2   B   0.555627512023071   0.777708901430306   0.623826885761933   1.0000000
B2   B   0.888748056073889   0.777708901430306   0.623826885761933   1.0000000
B2   B   0.722158161761677   0.277841838238316   0.623842146202806   1.0000000
B2   B   0.055422874039727   0.777674667720198   0.125454363012100   1.0000000
B2   B   0.388918460347109   0.777674667720198   0.125454363012100   1.0000000
B2   B   0.222350343143339   0.277841838238316   0.126157853797202   1.0000000
B2   B   0.722158161761677   0.777649656856705   0.126157853797203   1.0000000
B2   B   0.555782463829208   0.278150645425909   0.125794133543017   1.0000000
B2   B   0.888919440492157   0.277785000758935   0.125121025338623   1.0000000
B2   B   0.055499394570061   0.444332122473456   0.624593500367069   1.0000000
B2   B   0.222325332279815   0.944577125960284   0.624545636987933   1.0000000
B2   B   0.555667877526571   0.944500605429915   0.624593500367069   1.0000000
B2   B   0.389034848263359   0.444217536170874   0.624205866457002   1.0000000
B2   B   0.888919440492157   0.944467773066536   0.624878974661410   1.0000000
B2   B   0.055499394570061   0.944500605429915   0.125406499632959   1.0000000
B2   B   0.721849354574109   0.444217536170871   0.624205866456984   1.0000000
B2   B   0.388918460347110   0.944577125960284   0.125454363012100   1.0000000
B2   B   0.222291098569678   0.444372487976887   0.126173114238086   1.0000000
B2   B   0.222325332279815   0.611081539652970   0.125454363012100   1.0000000
B2   B   0.555555555555557   0.444444444444443   0.128494733483250   1.0000000
B2   B   0.722214999241025   0.944467773066536   0.125121025338623   1.0000000
B2   B   0.888748056073885   0.444372487976887   0.126173114238086   1.0000000
B2   B   0.055422874039727   0.611081539652970   0.624545636987933   1.0000000
B2   B   0.222291098569678   0.111251943926131   0.623826885761933   1.0000000
B2   B   0.721849354574109   0.610965151736641   0.624205866457002   1.0000000
B2   B   0.555627512023071   0.111251943926129   0.623826885761933   1.0000000
B2   B   0.888888888888886   0.111111111111114   0.625628699886662   1.0000000


