data_1
_audit_creation_method   'vasp2cif'
_cell_length_a    17.52789999999977
_cell_length_b    17.52789999999977
_cell_length_c    15.0
_cell_angle_alpha    90.0
_cell_angle_beta    90.0
_cell_angle_gamma    119.99999999999916

_symmetry_space_group_name_H-M    'P 1'
loop_
_atom_site_label
_atom_site_type_symbol
_atom_site_fract_x
_atom_site_fract_y
_atom_site_fract_z
_atom_site_occupancy
B2   B   0.904229692130744   0.951826589785734   0.111004460504119   1.0000000
B2   B   0.904565315010186   0.094888593285048   0.111043616952781   1.0000000
B2   B   0.904732841921554   0.237869734567050   0.111038635922786   1.0000000
B2   B   0.904856285064985   0.380808520958272   0.110987686687455   1.0000000
B2   B   0.905487654450693   0.523874521848545   0.110980489190913   1.0000000
B2   B   0.905497132462605   0.666997996033160   0.111067324505803   1.0000000
B2   B   0.904571221900133   0.809303953230664   0.111034483262920   1.0000000
B2   B   0.047426477893246   0.952359363863764   0.110981732781685   1.0000000
B2   B   0.047523438090230   0.095209450777958   0.110995842951431   1.0000000
B2   B   0.047671978514760   0.238037228487822   0.110981187580789   1.0000000
B2   B   0.047750934940848   0.380880990429652   0.111003336572694   1.0000000
B2   B   0.047924055874264   0.523815180059220   0.111000885737045   1.0000000
B2   B   0.047866490790495   0.666844060659158   0.111011373062902   1.0000000
B2   B   0.047767196155556   0.809780883562535   0.110978312360811   1.0000000
B2   B   0.190541513456216   0.952700390363336   0.110973100759169   1.0000000
B2   B   0.190407377638006   0.095416761928804   0.111037530192173   1.0000000
B2   B   0.190811977593997   0.238568452768017   0.110998217493636   1.0000000
B2   B   0.190700041249871   0.381086134526018   0.110997648591906   1.0000000
B2   B   0.190756471801693   0.523889431345780   0.111083209023413   1.0000000
B2   B   0.190392645228564   0.666846986909351   0.111084530301681   1.0000000
B2   B   0.190548909912049   0.809837612169364   0.110996594105250   1.0000000
B2   B   0.333439777629279   0.952791420161876   0.111011574748570   1.0000000
B2   B   0.333478027193738   0.095732486323501   0.111042560376247   1.0000000
B2   B   0.333331470828118   0.238394267511401   0.111079475114421   1.0000000
B2   B   0.334024997893652   0.381304267656490   0.111069113622150   1.0000000
B2   B   0.333814939950766   0.524730022684847   0.111098222790195   1.0000000
B2   B   0.332859745284291   0.666977128196702   0.111122155633160   1.0000000
B2   B   0.333288742922053   0.809818940616708   0.111084000332735   1.0000000
B2   B   0.476194033671900   0.952409761353363   0.111001818063971   1.0000000
B2   B   0.476315852757911   0.095903363934700   0.110983416827544   1.0000000
B2   B   0.476293252366947   0.239667139613797   0.111062424204544   1.0000000
B2   B   0.476203030331153   0.384305939725111   0.111133873301200   1.0000000
B2   B   0.474630602137647   0.664976366629920   0.111040787725202   1.0000000
B2   B   0.475970367623377   0.808864460343155   0.111055551965323   1.0000000
B2   B   0.618838573883352   0.951872972864747   0.111016926374672   1.0000000
B2   B   0.618993588376160   0.095132392870332   0.110993154116141   1.0000000
B2   B   0.619024474680522   0.238085558499211   0.110992663395775   1.0000000
B2   B   0.617827296253153   0.380331403016731   0.110995176640538   1.0000000
B2   B   0.616730278822643   0.663829903239818   0.111026160157299   1.0000000
B2   B   0.618451385746284   0.808533655023422   0.110971565407464   1.0000000
B2   B   0.761502707431243   0.951642773420827   0.111009687077655   1.0000000
B2   B   0.761735704980721   0.094853404982810   0.111065231554677   1.0000000
B2   B   0.761900391379509   0.237965772205451   0.111054230849050   1.0000000
B2   B   0.761994615802666   0.380881813250782   0.110979259376716   1.0000000
B2   B   0.763925938548771   0.525066867835137   0.111005359049008   1.0000000
B2   B   0.762264174820890   0.665652691610259   0.111081242845358   1.0000000
B2   B   0.760784044421886   0.808144299022806   0.111014430836264   1.0000000
C2   C   0.475798858242910   0.521806159270142   0.111157547367466   1.0000000
N2   N   0.952175526076512   0.904613154065803   0.110982320580264   1.0000000
N2   N   0.952192712762415   0.047337722606648   0.110998168090049   1.0000000
N2   N   0.952431539263503   0.190284995296212   0.111009834601281   1.0000000
N2   N   0.952591827730743   0.333179502841395   0.110987118628827   1.0000000
N2   N   0.952924314472952   0.476082874261086   0.110946242777154   1.0000000
N2   N   0.952989809037469   0.619205919992786   0.111000115698791   1.0000000
N2   N   0.952741135878521   0.762204320055546   0.111015570756063   1.0000000
N2   N   0.095355221838897   0.905052217722911   0.110942399881574   1.0000000
N2   N   0.095199309430737   0.047729240830670   0.110989142478233   1.0000000
N2   N   0.095535324249930   0.190738375186948   0.110959624872895   1.0000000
N2   N   0.095613684030591   0.333436941233230   0.110965856740020   1.0000000
N2   N   0.095704571567549   0.476178419760129   0.111008105537574   1.0000000
N2   N   0.095449761290922   0.619104052668095   0.111011998237103   1.0000000
N2   N   0.095461423302739   0.762156375119754   0.110970716686982   1.0000000
N2   N   0.238221084173677   0.905103958301429   0.110961201794501   1.0000000
N2   N   0.238204947078939   0.048034291598233   0.111008739613028   1.0000000
N2   N   0.238184217895315   0.190878355738584   0.111029018353775   1.0000000
N2   N   0.238935073352976   0.334299337335099   0.110980108198432   1.0000000
N2   N   0.238934378574736   0.476378294782246   0.111043271537198   1.0000000
N2   N   0.238015997108619   0.619071059835269   0.111103143461299   1.0000000
N2   N   0.238152010153001   0.762087603599060   0.111044435894495   1.0000000
N2   N   0.380955975517325   0.904956777542202   0.111019709077051   1.0000000
N2   N   0.381020932235081   0.048051888138334   0.110990327557126   1.0000000
N2   N   0.380972871597036   0.191105622341972   0.111057177967608   1.0000000
N2   N   0.380794638397276   0.333969673672601   0.111068695054678   1.0000000
N2   N   0.383405161161908   0.478054995898867   0.111102250548519   1.0000000
N2   N   0.380272257484579   0.619010467682661   0.111065991199903   1.0000000
N2   N   0.380778035775212   0.761881748406921   0.111088980059880   1.0000000
N2   N   0.523543584988408   0.904188145554538   0.111007082856913   1.0000000
N2   N   0.523713958437872   0.047734352219543   0.110943253156638   1.0000000
N2   N   0.523668693946066   0.191278357001600   0.110982787981864   1.0000000
N2   N   0.522843744427375   0.335199555342069   0.111056121397644   1.0000000
N2   N   0.518978042743092   0.479670112430142   0.111177204852138   1.0000000
N2   N   0.519821678167764   0.614034143704716   0.111059897578390   1.0000000
N2   N   0.523029050065697   0.760182479259250   0.110985442950806   1.0000000
N2   N   0.666103861818770   0.903860398174414   0.110973562477151   1.0000000
N2   N   0.666427545195368   0.047169275901640   0.111007343999544   1.0000000
N2   N   0.666608057815988   0.190279490772233   0.111009951597188   1.0000000
N2   N   0.666630176970027   0.332801916056421   0.110958855830720   1.0000000
N2   N   0.672158978853122   0.471586433231096   0.110904060142302   1.0000000
N2   N   0.669549156558495   0.625755826551615   0.111001000198599   1.0000000
N2   N   0.664914249058531   0.760304679753376   0.110960328280268   1.0000000
N2   N   0.808791606534088   0.903828476834093   0.110985786956820   1.0000000
N2   N   0.809251088121204   0.047080437733025   0.111032673049090   1.0000000
N2   N   0.809481190652165   0.190162397129223   0.111050763247667   1.0000000
N2   N   0.809685512073048   0.333122075499198   0.111006905088399   1.0000000
N2   N   0.810745957887131   0.476018579679986   0.110952773640417   1.0000000
N2   N   0.810843247693128   0.619589063310418   0.111058757094159   1.0000000
N2   N   0.809385617037317   0.761720605401416   0.111043219766265   1.0000000


