data_1
_audit_creation_method   'vasp2cif'
_cell_length_a    14.93631414619966
_cell_length_b    14.936314146199727
_cell_length_c    13.341276283792837
_cell_angle_alpha    90.0
_cell_angle_beta    90.0
_cell_angle_gamma    119.99999999999984

_symmetry_space_group_name_H-M    'P 1'
loop_
_atom_site_label
_atom_site_type_symbol
_atom_site_fract_x
_atom_site_fract_y
_atom_site_fract_z
_atom_site_occupancy
Si2   Si   0.444444444444443   0.388888888888886   0.375000000000000   1.0000000
N2   N   0.111112397904142   0.055543136748464   0.124590982438331   1.0000000
N2   N   0.611127389271582   0.555559667367633   0.125879301294174   1.0000000
N2   N   0.444430738844322   0.055543136748464   0.124590982438331   1.0000000
N2   N   0.944454705576350   0.555564204919740   0.124811495883123   1.0000000
N2   N   0.777777777777779   0.055555555555557   0.124944693097698   1.0000000
N2   N   0.111111111111114   0.722222222222221   0.624758677330971   1.0000000
N2   N   0.444430738844322   0.722220935429168   0.625409017561672   1.0000000
N2   N   0.277773665965825   0.222205944061756   0.624120698705789   1.0000000
N2   N   0.777790196584988   0.722220935429168   0.625409017561672   1.0000000
N2   N   0.611105538715574   0.222227794617810   0.625184289485415   1.0000000
N2   N   0.944453878348836   0.222232807832303   0.625259782799565   1.0000000
N2   N   0.277769128413524   0.722223833989720   0.124811495883123   1.0000000
N2   N   0.111122255902306   0.222227794617810   0.124815710514595   1.0000000
N2   N   0.444432278095977   0.222205944061757   0.125879301294174   1.0000000
N2   N   0.611105538715574   0.722211077431035   0.124815710514595   1.0000000
N2   N   0.944454705576350   0.722223833989720   0.124811495883123   1.0000000
N2   N   0.777778929483574   0.222232807832303   0.124740217200532   1.0000000
N2   N   0.111109499343524   0.888878627756979   0.625188504116851   1.0000000
N2   N   0.444433157390104   0.888883245361705   0.625450013238595   1.0000000
N2   N   0.277773665965825   0.388901055237352   0.624120698705789   1.0000000
N2   N   0.611127389271582   0.388901055237352   0.624120698705789   1.0000000
N2   N   0.777778929483574   0.888879454984493   0.625259782799565   1.0000000
N2   N   0.944450087971623   0.388900175943225   0.625450013238595   1.0000000
N2   N   0.111112397904142   0.388902594489006   0.124590982438331   1.0000000
N2   N   0.277769128413524   0.888878627756979   0.124811495883123   1.0000000
N2   N   0.611100525501023   0.888879454984493   0.124740217200532   1.0000000
N2   N   0.444444444444443   0.388888888888886   0.131468463347658   1.0000000
N2   N   0.944450087971623   0.888883245361705   0.124549986761336   1.0000000
N2   N   0.777790196584988   0.388902594489006   0.124590982438331   1.0000000
N2   N   0.277768196118298   0.555565137215075   0.625168282806230   1.0000000
N2   N   0.111112397904142   0.055543136748464   0.625409017561672   1.0000000
N2   N   0.611127389271582   0.555559667367633   0.624120698705789   1.0000000
N2   N   0.444430738844322   0.055543136748464   0.625409017561672   1.0000000
N2   N   0.944454705576350   0.555564204919740   0.625188504116851   1.0000000
N2   N   0.111109499343524   0.555564204919740   0.124811495883123   1.0000000
N2   N   0.777777777777779   0.055555555555557   0.625055306902209   1.0000000
N2   N   0.277768196118298   0.055536392236478   0.124831717193684   1.0000000
N2   N   0.444432278095977   0.555559667367633   0.125879301294174   1.0000000
N2   N   0.777796941096739   0.555565137215075   0.124831717193684   1.0000000
N2   N   0.611100525501023   0.055554403849790   0.124740217200532   1.0000000
N2   N   0.444432278095977   0.555559667367633   0.624120698705789   1.0000000
N2   N   0.944453878348836   0.055554403849790   0.124740217200532   1.0000000
N2   N   0.277769128413524   0.722223833989720   0.625188504116851   1.0000000
N2   N   0.111122255902306   0.222227794617810   0.625184289485415   1.0000000
N2   N   0.444432278095977   0.222205944061757   0.624120698705789   1.0000000
N2   N   0.611105538715574   0.722211077431036   0.625184289485415   1.0000000
N2   N   0.944454705576350   0.722223833989720   0.625188504116851   1.0000000
N2   N   0.777778929483574   0.222232807832303   0.625259782799565   1.0000000
N2   N   0.111111111111114   0.722222222222221   0.125241322668989   1.0000000
N2   N   0.444430738844322   0.722220935429168   0.124590982438331   1.0000000
N2   N   0.277773665965825   0.222205944061757   0.125879301294174   1.0000000
N2   N   0.777790196584988   0.722220935429168   0.124590982438331   1.0000000
N2   N   0.611105538715574   0.222227794617810   0.124815710514595   1.0000000
N2   N   0.944453878348836   0.222232807832303   0.124740217200532   1.0000000
N2   N   0.111112397904142   0.388902594489006   0.625409017561672   1.0000000
N2   N   0.277769128413524   0.888878627756979   0.625188504116851   1.0000000
N2   N   0.611100525501023   0.888879454984493   0.625259782799565   1.0000000
N2   N   0.444444444444443   0.388888888888886   0.618531536652363   1.0000000
N2   N   0.944450087971623   0.888883245361705   0.625450013238595   1.0000000
N2   N   0.111109499343524   0.888878627756979   0.124811495883123   1.0000000
N2   N   0.777790196584988   0.388902594489006   0.625409017561672   1.0000000
N2   N   0.444433157390104   0.888883245361705   0.124549986761336   1.0000000
N2   N   0.277773665965825   0.388901055237352   0.125879301294174   1.0000000
N2   N   0.277768196118298   0.555565137215075   0.124831717193684   1.0000000
N2   N   0.611127389271582   0.388901055237352   0.125879301294174   1.0000000
N2   N   0.777778929483574   0.888879454984493   0.124740217200532   1.0000000
N2   N   0.944450087971623   0.388900175943225   0.124549986761336   1.0000000
N2   N   0.111109499343524   0.555564204919740   0.625188504116851   1.0000000
N2   N   0.277768196118302   0.055536392236478   0.625168282806230   1.0000000
N2   N   0.777796941096739   0.555565137215075   0.625168282806230   1.0000000
N2   N   0.611100525501023   0.055554403849790   0.625259782799565   1.0000000
N2   N   0.944453878348836   0.055554403849790   0.625259782799565   1.0000000
N2   N   0.054792014563806   0.110594185816334   0.375000000000000   1.0000000
N2   N   0.556055679344313   0.612111358688731   0.375000000000000   1.0000000
N2   N   0.388265570702967   0.107455112325719   0.375000000000000   1.0000000
N2   N   0.890067334573717   0.611700333953658   0.375000000000000   1.0000000
N2   N   0.722353583296607   0.110979750036727   0.375000000000000   1.0000000
N2   N   0.055554637102090   0.777778696231196   0.875000000000000   1.0000000
N2   N   0.388894724601301   0.777777926185614   0.875000000000000   1.0000000
N2   N   0.222228026394799   0.277780679864062   0.875000000000000   1.0000000
N2   N   0.722220023715183   0.777778260640368   0.875000000000000   1.0000000
N2   N   0.555552653469321   0.277780679864062   0.875000000000000   1.0000000
N2   N   0.888888389077231   0.277776778154504   0.875000000000000   1.0000000
N2   N   0.222008089623497   0.777670711478443   0.375000000000000   1.0000000
N2   N   0.054792014563806   0.277531162080833   0.375000000000000   1.0000000
N2   N   0.382560736526868   0.265121473053748   0.375000000000000   1.0000000
N2   N   0.555802171252637   0.778541318769595   0.375000000000000   1.0000000
N2   N   0.889900659820608   0.778628084504585   0.375000000000000   1.0000000
N2   N   0.722739147517017   0.277531162080833   0.375000000000000   1.0000000
N2   N   0.055555407147674   0.944450131748983   0.875000000000000   1.0000000
N2   N   0.388894724601257   0.944450131748989   0.875000000000000   1.0000000
N2   N   0.222229760319340   0.444435517799539   0.875000000000000   1.0000000
N2   N   0.555534407666004   0.444433870499666   0.875000000000000   1.0000000
N2   N   0.722221722764076   0.944443445527907   0.875000000000000   1.0000000
N2   N   0.888883201584345   0.444438608732027   0.875000000000000   1.0000000
N2   N   0.054705248828753   0.444605908649368   0.375000000000000   1.0000000
N2   N   0.221632999379741   0.943265998759616   0.375000000000000   1.0000000
N2   N   0.555744507109081   0.944538920221301   0.375000000000000   1.0000000
N2   N   0.382560736526868   0.450772596806460   0.375000000000000   1.0000000
N2   N   0.888794413112027   0.944538920221301   0.375000000000000   1.0000000
N2   N   0.725878221007496   0.445067762630362   0.375000000000000   1.0000000
N2   N   0.222227826922066   0.611105506411238   0.875000000000000   1.0000000
N2   N   0.055555072692930   0.111113309618241   0.875000000000000   1.0000000
N2   N   0.555552653469351   0.611105306938547   0.875000000000000   1.0000000
N2   N   0.388897815533789   0.111127575853090   0.875000000000000   1.0000000
N2   N   0.888877679489244   0.611105506411238   0.875000000000000   1.0000000
N2   N   0.055662621854921   0.611325243709914   0.375000000000000   1.0000000
N2   N   0.722221722764076   0.111111610569330   0.875000000000000   1.0000000
N2   N   0.219189541622775   0.107455112325719   0.375000000000000   1.0000000
N2   N   0.388265570702967   0.614143791710533   0.375000000000000   1.0000000
N2   N   0.725878221007496   0.614143791710533   0.375000000000000   1.0000000
N2   N   0.555802171252637   0.110594185816334   0.375000000000000   1.0000000
N2   N   0.388897815533789   0.611103573013998   0.875000000000000   1.0000000
N2   N   0.888626166740137   0.110979750036727   0.375000000000000   1.0000000
N2   N   0.222224059129150   0.777778696231196   0.875000000000000   1.0000000
N2   N   0.055555072692930   0.277775096408033   0.875000000000000   1.0000000
N2   N   0.388899462833663   0.277798925667314   0.875000000000000   1.0000000
N2   N   0.555558236925278   0.777778260640368   0.875000000000000   1.0000000
N2   N   0.888883201584340   0.777777926185614   0.875000000000000   1.0000000
N2   N   0.722220023715183   0.277775096408033   0.875000000000000   1.0000000
N2   N   0.055662621854920   0.777670711478443   0.375000000000000   1.0000000
N2   N   0.388727424683961   0.778628084504585   0.375000000000000   1.0000000
N2   N   0.221221974644582   0.277277653988970   0.375000000000000   1.0000000
N2   N   0.722739147517017   0.778541318769595   0.375000000000000   1.0000000
N2   N   0.556055679344313   0.277277653988970   0.375000000000000   1.0000000
N2   N   0.888794413112027   0.277588826224234   0.375000000000000   1.0000000
N2   N   0.055555407147674   0.444438608732028   0.875000000000000   1.0000000
N2   N   0.222227826922066   0.944455653844084   0.875000000000000   1.0000000
N2   N   0.555556555178817   0.944444944256098   0.875000000000000   1.0000000
N2   N   0.388899462833663   0.444433870499666   0.875000000000000   1.0000000
N2   N   0.888888389077231   0.944444944256098   0.875000000000000   1.0000000
N2   N   0.054705248828753   0.943432673512721   0.375000000000000   1.0000000
N2   N   0.722205757480222   0.444435517799539   0.875000000000000   1.0000000
N2   N   0.388727424683961   0.943432673512721   0.375000000000000   1.0000000
N2   N   0.219189541622775   0.445067762630362   0.375000000000000   1.0000000
N2   N   0.221632999379741   0.611700333953658   0.375000000000000   1.0000000
N2   N   0.568211860279592   0.450772596806460   0.375000000000000   1.0000000
N2   N   0.722353583296607   0.944707166593192   0.375000000000000   1.0000000
N2   N   0.889900659820608   0.444605908649368   0.375000000000000   1.0000000
N2   N   0.055554637102091   0.611109274204148   0.875000000000000   1.0000000
N2   N   0.222229760319339   0.111127575853090   0.875000000000000   1.0000000
N2   N   0.722205757480222   0.611103573013998   0.875000000000000   1.0000000
N2   N   0.555558236925278   0.111113309618241   0.875000000000000   1.0000000
N2   N   0.888889887805422   0.111111610569330   0.875000000000000   1.0000000
B2   B   0.108572775080725   0.053373482795591   0.375000000000000   1.0000000
B2   B   0.617133331870077   0.561786564005578   0.375000000000000   1.0000000
B2   B   0.444800707714855   0.053373482795591   0.375000000000000   1.0000000
B2   B   0.945096746307828   0.555704207397921   0.375000000000000   1.0000000
B2   B   0.777777777777779   0.055555555555557   0.375000000000000   1.0000000
B2   B   0.111111111111114   0.722222222222221   0.875000000000000   1.0000000
B2   B   0.444460599729629   0.722269881245624   0.875000000000000   1.0000000
B2   B   0.277718392263344   0.222177339241787   0.875000000000000   1.0000000
B2   B   0.777809281515885   0.722269881245624   0.875000000000000   1.0000000
B2   B   0.611146153813288   0.222187179520056   0.875000000000000   1.0000000
B2   B   0.944412145201980   0.222201378789815   0.875000000000000   1.0000000
B2   B   0.277629125935399   0.722725872243156   0.375000000000000   1.0000000
B2   B   0.109361205851204   0.221347269592266   0.375000000000000   1.0000000
B2   B   0.444653232135527   0.216200001463262   0.375000000000000   1.0000000
B2   B   0.611986063741109   0.723972127482225   0.375000000000000   1.0000000
B2   B   0.945096746307826   0.722725872243156   0.375000000000000   1.0000000
B2   B   0.778000204379152   0.221768488767905   0.375000000000000   1.0000000
B2   B   0.111097945089215   0.888877112088900   0.875000000000000   1.0000000
B2   B   0.444456647187925   0.888894990260684   0.875000000000000   1.0000000
B2   B   0.277718392263343   0.388874386354908   0.875000000000000   1.0000000
B2   B   0.611155994091519   0.388874386354908   0.875000000000000   1.0000000
B2   B   0.777789233587770   0.888921188131349   0.875000000000000   1.0000000
B2   B   0.944438343072645   0.388876686145403   0.875000000000000   1.0000000
B2   B   0.108572775080725   0.388532625618474   0.375000000000000   1.0000000
B2   B   0.277629125935399   0.888236587025502   0.375000000000000   1.0000000
B2   B   0.611564844565365   0.889565048944600   0.375000000000000   1.0000000
B2   B   0.944275247603124   0.889058085730204   0.375000000000000   1.0000000
B2   B   0.779959850537824   0.388532625618474   0.375000000000000   1.0000000
B2   B   0.277759145951963   0.555574187381346   0.875000000000000   1.0000000
B2   B   0.111063452087796   0.055524051817448   0.875000000000000   1.0000000
B2   B   0.611155994091519   0.555614941069880   0.875000000000000   1.0000000
B2   B   0.444460599729629   0.055524051817448   0.875000000000000   1.0000000
B2   B   0.944456221244429   0.555554166333806   0.875000000000000   1.0000000
B2   B   0.110607461090085   0.555704207397921   0.375000000000000   1.0000000
B2   B   0.777777777777779   0.055555555555557   0.875000000000000   1.0000000
B2   B   0.276611938466615   0.053223876933181   0.375000000000000   1.0000000
B2   B   0.444653232135527   0.561786564005578   0.375000000000000   1.0000000
B2   B   0.780109456400107   0.556721394866651   0.375000000000000   1.0000000
B2   B   0.611564844565365   0.055333128954156   0.375000000000000   1.0000000
B2   B   0.444458946978421   0.555614941069880   0.875000000000000   1.0000000
B2   B   0.943768284388729   0.055333128954156   0.375000000000000   1.0000000
B2   B   0.277779166999569   0.722235388244170   0.875000000000000   1.0000000
B2   B   0.111041025706800   0.222187179520056   0.875000000000000   1.0000000
B2   B   0.444458946978421   0.222177339241787   0.875000000000000   1.0000000
B2   B   0.611146153813288   0.722292307626574   0.875000000000000   1.0000000
B2   B   0.944456221244429   0.722235388244170   0.875000000000000   1.0000000
B2   B   0.777789233587770   0.222201378789815   0.875000000000000   1.0000000
B2   B   0.111111111111114   0.722222222222221   0.375000000000000   1.0000000
B2   B   0.444800707714855   0.724760558252627   0.375000000000000   1.0000000
B2   B   0.271546769327633   0.216200001463262   0.375000000000000   1.0000000
B2   B   0.779959850537824   0.724760558252627   0.375000000000000   1.0000000
B2   B   0.611986063741109   0.221347269592266   0.375000000000000   1.0000000
B2   B   0.943768284388729   0.221768488767905   0.375000000000000   1.0000000
B2   B   0.111063452087796   0.388872733603700   0.875000000000000   1.0000000
B2   B   0.277779166999569   0.888877112088900   0.875000000000000   1.0000000
B2   B   0.611131954543493   0.888921188131349   0.875000000000000   1.0000000
B2   B   0.444444444444443   0.388888888888886   0.875000000000000   1.0000000
B2   B   0.944438343072645   0.888894990260684   0.875000000000000   1.0000000
B2   B   0.110607461090085   0.888236587025502   0.375000000000000   1.0000000
B2   B   0.777809281515885   0.388872733603700   0.875000000000000   1.0000000
B2   B   0.444782838127120   0.889058085730204   0.375000000000000   1.0000000
B2   B   0.271546769327633   0.388680101197802   0.375000000000000   1.0000000
B2   B   0.276611938466615   0.556721394866651   0.375000000000000   1.0000000
B2   B   0.617133331870077   0.388680101197802   0.375000000000000   1.0000000
B2   B   0.778000204379152   0.889565048944600   0.375000000000000   1.0000000
B2   B   0.944275247603124   0.388550495206208   0.375000000000000   1.0000000
B2   B   0.111097945089215   0.555554166333806   0.875000000000000   1.0000000
B2   B   0.277759145951963   0.055518291903926   0.875000000000000   1.0000000
B2   B   0.777815041429409   0.555574187381346   0.875000000000000   1.0000000
B2   B   0.611131954543493   0.055544099745474   0.875000000000000   1.0000000
B2   B   0.944412145201980   0.055544099745474   0.875000000000000   1.0000000
B2   B   0.055468799620156   0.111024530127490   0.124477824824871   1.0000000
B2   B   0.555653670281890   0.611307340564019   0.125097414164009   1.0000000
B2   B   0.388802538503733   0.110870087377482   0.124634764479556   1.0000000
B2   B   0.889032891062932   0.611183112198132   0.124572612121066   1.0000000
B2   B   0.722234895555850   0.111098437777545   0.124675854993746   1.0000000
B2   B   0.055574060028267   0.777759273305151   0.625184144310842   1.0000000
B2   B   0.388844106535891   0.777819890416241   0.625583453479640   1.0000000
B2   B   0.222025992769315   0.277679663051315   0.624902585836087   1.0000000
B2   B   0.722308803205798   0.777864533713239   0.625522175175159   1.0000000
B2   B   0.555653670281890   0.277679663051315   0.624902585836087   1.0000000
B2   B   0.888891596427160   0.277783192854112   0.625510422132585   1.0000000
B2   B   0.222185213276824   0.777759273305151   0.124815855689101   1.0000000
B2   B   0.055468799620156   0.277777602826045   0.124477824824871   1.0000000
B2   B   0.388676956445383   0.277353912890722   0.126829206800053   1.0000000
B2   B   0.555555730507324   0.777864533713239   0.124477824824871   1.0000000
B2   B   0.888975783880385   0.777819890416241   0.124416546520393   1.0000000
B2   B   0.722308803205798   0.277777602826045   0.124477824824871   1.0000000
B2   B   0.055513442917084   0.944357549452943   0.625583453479640   1.0000000
B2   B   0.388844106535891   0.944357549452943   0.625583453479640   1.0000000
B2   B   0.222067548873752   0.444530794829596   0.625365235520465   1.0000000
B2   B   0.555979420442562   0.444656376887945   0.623170793199836   1.0000000
B2   B   0.722234895555850   0.944469791111579   0.625324145006185   1.0000000
B2   B   0.888975783880385   0.444489226797438   0.625583453479640   1.0000000
B2   B   0.055513442917084   0.444489226797438   0.124416546520393   1.0000000
B2   B   0.222150221135209   0.944300442270397   0.124572612121066   1.0000000
B2   B   0.555550140479213   0.944441736906168   0.124489577867527   1.0000000
B2   B   0.388676956445383   0.444656376887945   0.126829206800050   1.0000000
B2   B   0.888891596427160   0.944441736906168   0.124489577867527   1.0000000
B2   B   0.722463245955807   0.444530794829596   0.124634764479556   1.0000000
B2   B   0.222150221135209   0.611183112198132   0.625427387878962   1.0000000
B2   B   0.055468799620156   0.111024530127490   0.625522175175159   1.0000000
B2   B   0.555653670281890   0.611307340564041   0.624902585836087   1.0000000
B2   B   0.388802538503733   0.110870087377482   0.625365235520465   1.0000000
B2   B   0.889032891062932   0.611183112198132   0.625427387878962   1.0000000
B2   B   0.055574060028267   0.611148120056607   0.124815855689101   1.0000000
B2   B   0.722234895555850   0.111098437777545   0.625324145006185   1.0000000
B2   B   0.222067548873752   0.110870087377482   0.124634764479556   1.0000000
B2   B   0.388802538503733   0.611265784459572   0.124634764479556   1.0000000
B2   B   0.722463245955807   0.611265784459572   0.124634764479556   1.0000000
B2   B   0.555555730507324   0.111024530127490   0.124477824824871   1.0000000
B2   B   0.388802538503733   0.611265784459572   0.625365235520465   1.0000000
B2   B   0.888863542221750   0.111098437777545   0.124675854993746   1.0000000
B2   B   0.222185213276824   0.777759273305151   0.625184144310842   1.0000000
B2   B   0.055468799620161   0.277777602826045   0.625522175175159   1.0000000
B2   B   0.388676956445383   0.277353912890722   0.623170793199836   1.0000000
B2   B   0.555555730507324   0.777864533713239   0.625522175175159   1.0000000
B2   B   0.888975783880385   0.777819890416241   0.625583453479640   1.0000000
B2   B   0.722308803205798   0.277777602826045   0.625522175175159   1.0000000
B2   B   0.055574060028267   0.777759273305151   0.124815855689101   1.0000000
B2   B   0.388844106535891   0.777819890416241   0.124416546520393   1.0000000
B2   B   0.222025992769315   0.277679663051326   0.125097414164008   1.0000000
B2   B   0.722308803205798   0.777864533713239   0.124477824824871   1.0000000
B2   B   0.555653670281890   0.277679663051326   0.125097414164009   1.0000000
B2   B   0.888891596427160   0.277783192854112   0.124489577867527   1.0000000
B2   B   0.055513442917084   0.444489226797438   0.625583453479640   1.0000000
B2   B   0.222150221135209   0.944300442270397   0.625427387878962   1.0000000
B2   B   0.555550140479213   0.944441736906168   0.625510422132585   1.0000000
B2   B   0.388676956445383   0.444656376887945   0.623170793199836   1.0000000
B2   B   0.888891596427160   0.944441736906168   0.625510422132585   1.0000000
B2   B   0.055513442917084   0.944357549452943   0.124416546520393   1.0000000
B2   B   0.722463245955807   0.444530794829596   0.625365235520465   1.0000000
B2   B   0.388844106535891   0.944357549452943   0.124416546520393   1.0000000
B2   B   0.222067548873752   0.444530794829596   0.124634764479556   1.0000000
B2   B   0.222150221135209   0.611183112198132   0.124572612121066   1.0000000
B2   B   0.555979420442562   0.444656376887945   0.126829206800050   1.0000000
B2   B   0.722234895555850   0.944469791111579   0.124675854993746   1.0000000
B2   B   0.888975783880385   0.444489226797438   0.124416546520394   1.0000000
B2   B   0.055574060028267   0.611148120056607   0.625184144310842   1.0000000
B2   B   0.222067548873752   0.110870087377482   0.625365235520465   1.0000000
B2   B   0.722463245955807   0.611265784459572   0.625365235520465   1.0000000
B2   B   0.555555730507324   0.111024530127490   0.625522175175159   1.0000000
B2   B   0.888863542221750   0.111098437777545   0.625324145006185   1.0000000


