data_1
_audit_creation_method   'vasp2cif'
_cell_length_a    17.52789999999977
_cell_length_b    17.52789999999977
_cell_length_c    15.0
_cell_angle_alpha    90.0
_cell_angle_beta    90.0
_cell_angle_gamma    119.99999999999916

_symmetry_space_group_name_H-M    'P 1'
loop_
_atom_site_label
_atom_site_type_symbol
_atom_site_fract_x
_atom_site_fract_y
_atom_site_fract_z
_atom_site_occupancy
B2   B   0.905412452368966   0.953428966814397   0.118835447176084   1.0000000
B2   B   0.904226381484280   0.095937269170912   0.119014020125104   1.0000000
B2   B   0.903820127852321   0.238813379845098   0.117601655969196   1.0000000
B2   B   0.903773863959973   0.381621518443209   0.115011148106440   1.0000000
B2   B   0.904398191040138   0.524365398417172   0.113479866344532   1.0000000
B2   B   0.906387698347157   0.667567576831222   0.114088327673424   1.0000000
B2   B   0.907104505628508   0.811345124399697   0.116663915311727   1.0000000
B2   B   0.048006083151718   0.952160687115749   0.119741497275916   1.0000000
B2   B   0.046718938097186   0.094754523852907   0.118840144205606   1.0000000
B2   B   0.046473972349793   0.237936605758837   0.115240042871982   1.0000000
B2   B   0.047004567694100   0.380917800116645   0.112638960125116   1.0000000
B2   B   0.048152950806416   0.523566635827757   0.113124872626558   1.0000000
B2   B   0.048786248122635   0.666377035390396   0.115397724434224   1.0000000
B2   B   0.048815838032293   0.809409968905700   0.117967508691496   1.0000000
B2   B   0.190764766651638   0.951334609985170   0.117942742842160   1.0000000
B2   B   0.188776752302469   0.093000444860652   0.116668391994944   1.0000000
B2   B   0.187933610739343   0.235893725352628   0.111902930096964   1.0000000
B2   B   0.189351251420109   0.379760985161891   0.106980517619836   1.0000000
B2   B   0.192129879718912   0.522687755126816   0.106266777819958   1.0000000
B2   B   0.191961667150410   0.665593217511504   0.110065385874386   1.0000000
B2   B   0.191555783586438   0.808602502838183   0.115264211587091   1.0000000
B2   B   0.333776140915250   0.951348576897822   0.115376328342564   1.0000000
B2   B   0.332593885396821   0.093739771253164   0.114097242711990   1.0000000
B2   B   0.328774584288552   0.233169632059285   0.109126978396916   1.0000000
B2   B   0.328971760952015   0.376750472209078   0.102408166074027   1.0000000
B2   B   0.337157203659047   0.521254020711582   0.098756632045105   1.0000000
B2   B   0.335460895368334   0.664639743676775   0.102700642265450   1.0000000
B2   B   0.334546680501045   0.808174052122151   0.110053932476886   1.0000000
B2   B   0.476591506081025   0.951999903759925   0.113113643810388   1.0000000
B2   B   0.475817474178399   0.095743434489750   0.113474151113000   1.0000000
B2   B   0.474258316690414   0.239134256831085   0.106874093004616   1.0000000
B2   B   0.465563608330967   0.376928160080303   0.099272480245478   1.0000000
B2   B   0.478865785343119   0.662983088321208   0.098746883545006   1.0000000
B2   B   0.477444531183062   0.808010150087170   0.106296779075389   1.0000000
B2   B   0.619231380917993   0.953147119517401   0.112619479317210   1.0000000
B2   B   0.618552830328796   0.096389942712674   0.114988370488538   1.0000000
B2   B   0.617731557776865   0.239996879845791   0.110132569336533   1.0000000
B2   B   0.616230153688270   0.383925194692517   0.102810792910398   1.0000000
B2   B   0.623227963081466   0.534604929785626   0.099291270942693   1.0000000
B2   B   0.623403180190579   0.671200649402031   0.102412229741455   1.0000000
B2   B   0.620375107420012   0.810801020063493   0.106979025946081   1.0000000
B2   B   0.762216319082389   0.953686751674988   0.115294827645067   1.0000000
B2   B   0.761341743954451   0.096356806413790   0.117645923477009   1.0000000
B2   B   0.760769564710911   0.239395094659362   0.115369549435436   1.0000000
B2   B   0.760166300814326   0.382442133563417   0.110146527502159   1.0000000
B2   B   0.761016283809585   0.525920220767379   0.106890201587852   1.0000000
B2   B   0.766989237190247   0.671405681954529   0.109151487220102   1.0000000
B2   B   0.764244569410339   0.812234320275536   0.111962056050149   1.0000000
N2   N   0.953398997921666   0.905880228975200   0.119403106799720   1.0000000
N2   N   0.951971407770567   0.048178275210368   0.120018250283011   1.0000000
N2   N   0.951366099943811   0.190980932830981   0.118012896158147   1.0000000
N2   N   0.951505618566209   0.333971012940082   0.115808823394538   1.0000000
N2   N   0.952217723329324   0.476705006190603   0.114991976404877   1.0000000
N2   N   0.953298574422717   0.619409973468753   0.115024252211348   1.0000000
N2   N   0.953811489711684   0.762615181779720   0.116886816971037   1.0000000
N2   N   0.095733463825634   0.904378323295519   0.119090230217731   1.0000000
N2   N   0.094292277821007   0.046743945775620   0.119486313495488   1.0000000
N2   N   0.093375353068539   0.189471452831905   0.115843307364002   1.0000000
N2   N   0.094161942790509   0.332991724255331   0.111524003282863   1.0000000
N2   N   0.096064727064679   0.475986269663684   0.110453257455929   1.0000000
N2   N   0.096407364513211   0.618664824166501   0.113346737742468   1.0000000
N2   N   0.096319964345322   0.761483203778268   0.116818633118652   1.0000000
N2   N   0.238647087689986   0.903803689737866   0.116765770911320   1.0000000
N2   N   0.237545557459505   0.046331270855543   0.116845919063382   1.0000000
N2   N   0.234802737030131   0.187329943645169   0.112961528619079   1.0000000
N2   N   0.234611130734728   0.330375964217353   0.106696466045473   1.0000000
N2   N   0.240037453381958   0.474813841497379   0.103355627815324   1.0000000
N2   N   0.239812154576909   0.617909693373111   0.105583987620895   1.0000000
N2   N   0.239245670464438   0.760881260143154   0.111377663320718   1.0000000
N2   N   0.381480054362587   0.903722492573131   0.113297123210058   1.0000000
N2   N   0.380737401765289   0.046835937928069   0.115066056677138   1.0000000
N2   N   0.379234547374808   0.188877195011636   0.109790874896100   1.0000000
N2   N   0.373908152986684   0.326761605882876   0.104307798677008   1.0000000
N2   N   0.381157604815482   0.469473266495848   0.096745536205418   1.0000000
N2   N   0.383433355564779   0.616694597547165   0.097983838504117   1.0000000
N2   N   0.382218129636151   0.760315344145489   0.105606559180650   1.0000000
N2   N   0.524158682519027   0.904070797255801   0.110492042384658   1.0000000
N2   N   0.523443792060652   0.047923083954731   0.114966674651489   1.0000000
N2   N   0.522518992565353   0.191817332682858   0.109850900552431   1.0000000
N2   N   0.520391721723868   0.336102875137217   0.101508439193189   1.0000000
N2   N   0.530668852512812   0.619014178809179   0.096701353804184   1.0000000
N2   N   0.525328377618411   0.760115211578752   0.103366791997681   1.0000000
N2   N   0.667163467347046   0.905994365404975   0.111463435702838   1.0000000
N2   N   0.666205870916769   0.048658966392168   0.115784021459533   1.0000000
N2   N   0.665461494613223   0.192093507242159   0.113711144317153   1.0000000
N2   N   0.664320871707127   0.335851811741509   0.107279962639805   1.0000000
N2   N   0.664039216672062   0.479790888110592   0.101562776982213   1.0000000
N2   N   0.673347815466770   0.626244610400052   0.104328433048664   1.0000000
N2   N   0.669763770598150   0.765539991431960   0.106738456027973   1.0000000
N2   N   0.810661451562767   0.906777669687283   0.115905294157137   1.0000000
N2   N   0.809167145259000   0.048774025496268   0.118151142645391   1.0000000
N2   N   0.808500421151915   0.191648323052402   0.118501304319597   1.0000000
N2   N   0.808070323873016   0.334711079085862   0.113731284339846   1.0000000
N2   N   0.808330507031260   0.477652571805370   0.109877335890628   1.0000000
N2   N   0.811263226784031   0.620928671603758   0.109763129384397   1.0000000
N2   N   0.812838192725969   0.765364767815190   0.113019590871510   1.0000000
S2   S   0.502537739013362   0.497582994234179   0.086720294896972   1.0000000


