data_1
_audit_creation_method   'vasp2cif'
_cell_length_a    14.93631414619966
_cell_length_b    14.936314146199727
_cell_length_c    13.341276283792837
_cell_angle_alpha    90.0
_cell_angle_beta    90.0
_cell_angle_gamma    119.99999999999984

_symmetry_space_group_name_H-M    'P 1'
loop_
_atom_site_label
_atom_site_type_symbol
_atom_site_fract_x
_atom_site_fract_y
_atom_site_fract_z
_atom_site_occupancy
N2   N   0.111112214741027   0.055546320021460   0.124950861129272   1.0000000
N2   N   0.611108422347059   0.555550178027448   0.125243953480955   1.0000000
N2   N   0.444434364413955   0.055544626925558   0.124972425594333   1.0000000
N2   N   0.944455373074441   0.555565635586045   0.124972425594333   1.0000000
N2   N   0.777768225516676   0.055550779425004   0.124940918563608   1.0000000
N2   N   0.111116934800545   0.722225134066938   0.625065924871310   1.0000000
N2   N   0.444434364413955   0.722223070821735   0.625027574405669   1.0000000
N2   N   0.277780547118322   0.222213100202548   0.625035559570185   1.0000000
N2   N   0.777786899797452   0.722219452881677   0.625035559570185   1.0000000
N2   N   0.611099219750895   0.222213100202548   0.625035559570185   1.0000000
N2   N   0.944449220574999   0.222231774483327   0.625059081436390   1.0000000
N2   N   0.277774865933065   0.722225134066938   0.124934075128687   1.0000000
N2   N   0.111120842095075   0.222227087714202   0.124966126032716   1.0000000
N2   N   0.444448343195220   0.222230019723777   0.125026781474956   1.0000000
N2   N   0.611099219750895   0.722219452881677   0.124964440429813   1.0000000
N2   N   0.944455373074441   0.722223070821735   0.124972425594333   1.0000000
N2   N   0.777772912285796   0.222227087714202   0.124966126032716   1.0000000
N2   N   0.111117938697260   0.888882061302739   0.625048594096040   1.0000000
N2   N   0.444430789272152   0.888882061302739   0.625048594096040   1.0000000
N2   N   0.277780547118322   0.388900780249103   0.625035559570185   1.0000000
N2   N   0.611108422347059   0.388891577652940   0.624756046519042   1.0000000
N2   N   0.777772912285796   0.888879157904925   0.625033873967286   1.0000000
N2   N   0.944453679978540   0.388899228052894   0.625049138870726   1.0000000
N2   N   0.111112214741027   0.388899228052894   0.124950861129272   1.0000000
N2   N   0.277774865933065   0.888883065199458   0.124934075128687   1.0000000
N2   N   0.611100771947105   0.888887785258978   0.124950861129272   1.0000000
N2   N   0.444449821972549   0.388891577652940   0.125243953480955   1.0000000
N2   N   0.944453679978540   0.888887785258978   0.124950861129272   1.0000000
N2   N   0.777786899797452   0.388900780249103   0.124964440429813   1.0000000
N2   N   0.277776929178265   0.555565635586045   0.625027574405669   1.0000000
N2   N   0.111112214741027   0.055546320021460   0.625049138870726   1.0000000
N2   N   0.611108422347059   0.555550178027448   0.624756046519042   1.0000000
N2   N   0.444434364413955   0.055544626925558   0.625027574405669   1.0000000
N2   N   0.944455373074441   0.555565635586045   0.625027574405669   1.0000000
N2   N   0.111117938697260   0.555569210727845   0.124951405903960   1.0000000
N2   N   0.777768225516676   0.055550779425004   0.625059081436390   1.0000000
N2   N   0.277776929178265   0.055544626925558   0.124972425594333   1.0000000
N2   N   0.444448343195220   0.555551656804779   0.125026781474956   1.0000000
N2   N   0.777769980276224   0.555551656804779   0.125026781474956   1.0000000
N2   N   0.611100771947105   0.055546320021460   0.124950861129272   1.0000000
N2   N   0.444448343195220   0.555551656804779   0.624973218525044   1.0000000
N2   N   0.944449220574999   0.055550779425004   0.124940918563608   1.0000000
N2   N   0.277774865933065   0.722225134066938   0.625065924871310   1.0000000
N2   N   0.111120842095075   0.222227087714202   0.625033873967286   1.0000000
N2   N   0.444448343195220   0.222230019723777   0.624973218525044   1.0000000
N2   N   0.611099219750895   0.722219452881677   0.625035559570185   1.0000000
N2   N   0.944455373074441   0.722223070821735   0.625027574405669   1.0000000
N2   N   0.777772912285796   0.222227087714202   0.625033873967286   1.0000000
N2   N   0.111116934800545   0.722225134066938   0.124934075128687   1.0000000
N2   N   0.444434364413955   0.722223070821735   0.124972425594333   1.0000000
N2   N   0.277780547118322   0.222213100202548   0.124964440429813   1.0000000
N2   N   0.777786899797452   0.722219452881677   0.124964440429813   1.0000000
N2   N   0.611099219750895   0.222213100202548   0.124964440429813   1.0000000
N2   N   0.944449220574999   0.222231774483327   0.124940918563608   1.0000000
N2   N   0.111112214741027   0.388899228052894   0.625049138870726   1.0000000
N2   N   0.277774865933065   0.888883065199458   0.625065924871310   1.0000000
N2   N   0.611100771947105   0.888887785258978   0.625049138870726   1.0000000
N2   N   0.444449821972549   0.388891577652940   0.624756046519042   1.0000000
N2   N   0.944453679978540   0.888887785258978   0.625049138870726   1.0000000
N2   N   0.111117938697260   0.888882061302739   0.124951405903960   1.0000000
N2   N   0.777786899797452   0.388900780249103   0.625035559570185   1.0000000
N2   N   0.444430789272152   0.888882061302739   0.124951405903960   1.0000000
N2   N   0.277780547118322   0.388900780249103   0.124964440429813   1.0000000
N2   N   0.277776929178265   0.555565635586045   0.124972425594333   1.0000000
N2   N   0.611108422347059   0.388891577652940   0.125243953480955   1.0000000
N2   N   0.777772912285796   0.888879157904925   0.124966126032716   1.0000000
N2   N   0.944453679978540   0.388899228052894   0.124950861129272   1.0000000
N2   N   0.111117938697260   0.555569210727845   0.625048594096040   1.0000000
N2   N   0.277776929178265   0.055544626925558   0.625027574405669   1.0000000
N2   N   0.777769980276224   0.555551656804779   0.624973218525044   1.0000000
N2   N   0.611100771947105   0.055546320021460   0.625049138870726   1.0000000
N2   N   0.944449220574999   0.055550779425004   0.625059081436390   1.0000000
N2   N   0.054995202349723   0.110764537668083   0.375000000000000   1.0000000
N2   N   0.555866010578789   0.615417897660436   0.375000000000000   1.0000000
N2   N   0.388539139608885   0.110411612551112   0.375000000000000   1.0000000
N2   N   0.889588387448887   0.611460860391115   0.375000000000000   1.0000000
N2   N   0.722436001985022   0.110764537668083   0.375000000000000   1.0000000
N2   N   0.055555245821351   0.777777654573863   0.875000000000000   1.0000000
N2   N   0.388889075419181   0.777777654573863   0.875000000000000   1.0000000
N2   N   0.222225880378880   0.277779606856106   0.875000000000000   1.0000000
N2   N   0.722220393143889   0.777774119621123   0.875000000000000   1.0000000
N2   N   0.555558109792158   0.277779407514369   0.875000000000000   1.0000000
N2   N   0.888888578040278   0.277775521655417   0.875000000000000   1.0000000
N2   N   0.222222222222221   0.777777777777779   0.375000000000000   1.0000000
N2   N   0.054995202349723   0.277563998014976   0.375000000000000   1.0000000
N2   N   0.384582102339567   0.273781446251691   0.375000000000000   1.0000000
N2   N   0.555471405430740   0.779526535721798   0.375000000000000   1.0000000
N2   N   0.890721796957730   0.779526535721798   0.375000000000000   1.0000000
N2   N   0.723097548893133   0.276902451106872   0.375000000000000   1.0000000
N2   N   0.055555789551824   0.944444210448177   0.875000000000000   1.0000000
N2   N   0.388889075419181   0.944444754178647   0.875000000000000   1.0000000
N2   N   0.222216170865379   0.444445319397134   0.875000000000000   1.0000000
N2   N   0.555555555555557   0.444444444444443   0.875000000000000   1.0000000
N2   N   0.722224478344578   0.944446389718197   0.875000000000000   1.0000000
N2   N   0.888895815198418   0.444445319397134   0.875000000000000   1.0000000
N2   N   0.055622848033921   0.444579029401170   0.375000000000000   1.0000000
N2   N   0.222106089257450   0.944113707921055   0.375000000000000   1.0000000
N2   N   0.555420970598831   0.944377151966078   0.375000000000000   1.0000000
N2   N   0.384582102339567   0.444133989421209   0.375000000000000   1.0000000
N2   N   0.889235462331915   0.945004797650280   0.375000000000000   1.0000000
N2   N   0.726218553748310   0.444133989421209   0.375000000000000   1.0000000
N2   N   0.222222345426133   0.611110924580822   0.875000000000000   1.0000000
N2   N   0.055553610281803   0.111111421959721   0.875000000000000   1.0000000
N2   N   0.555558109792158   0.611112035611130   0.875000000000000   1.0000000
N2   N   0.388893260478511   0.111119854290364   0.875000000000000   1.0000000
N2   N   0.888880145709635   0.611106739521489   0.875000000000000   1.0000000
N2   N   0.055886292078940   0.611325714669728   0.375000000000000   1.0000000
N2   N   0.722224478344578   0.111111421959721   0.875000000000000   1.0000000
N2   N   0.220473464278196   0.109278203042272   0.375000000000000   1.0000000
N2   N   0.388539139608885   0.611460860391115   0.375000000000000   1.0000000
N2   N   0.726218553748310   0.615417897660436   0.375000000000000   1.0000000
N2   N   0.555471405430740   0.109278203042272   0.375000000000000   1.0000000
N2   N   0.388893260478511   0.611106739521489   0.875000000000000   1.0000000
N2   N   0.888888888888886   0.111111111111114   0.375000000000000   1.0000000
N2   N   0.222222222222221   0.777777777777779   0.875000000000000   1.0000000
N2   N   0.055553610281803   0.277775521655417   0.875000000000000   1.0000000
N2   N   0.388887964388874   0.277779407514369   0.875000000000000   1.0000000
N2   N   0.555554680602869   0.777783829134620   0.875000000000000   1.0000000
N2   N   0.888895815198418   0.777783829134620   0.875000000000000   1.0000000
N2   N   0.722220393143889   0.277779606856106   0.875000000000000   1.0000000
N2   N   0.055886292078940   0.777893910742553   0.375000000000000   1.0000000
N2   N   0.388674285330274   0.777893910742553   0.375000000000000   1.0000000
N2   N   0.220471568880408   0.276902451106872   0.375000000000000   1.0000000
N2   N   0.723097548893133   0.779528431119592   0.375000000000000   1.0000000
N2   N   0.555866010578789   0.273781446251691   0.375000000000000   1.0000000
N2   N   0.889235462331915   0.277563998014976   0.375000000000000   1.0000000
N2   N   0.055555789551824   0.444444912436977   0.875000000000000   1.0000000
N2   N   0.222222345426133   0.944444754178647   0.875000000000000   1.0000000
N2   N   0.555555087563022   0.944444210448177   0.875000000000000   1.0000000
N2   N   0.388887964388874   0.444441890207839   0.875000000000000   1.0000000
N2   N   0.888888578040278   0.944446389718197   0.875000000000000   1.0000000
N2   N   0.055622848033921   0.944377151966078   0.375000000000000   1.0000000
N2   N   0.722220592485624   0.444441890207839   0.875000000000000   1.0000000
N2   N   0.388674285330274   0.944113707921055   0.375000000000000   1.0000000
N2   N   0.220473464278196   0.444528594569261   0.375000000000000   1.0000000
N2   N   0.222106089257450   0.611325714669728   0.375000000000000   1.0000000
N2   N   0.722436001985022   0.945004797650280   0.375000000000000   1.0000000
N2   N   0.890721796957730   0.444528594569261   0.375000000000000   1.0000000
N2   N   0.055555245821351   0.611110924580822   0.875000000000000   1.0000000
N2   N   0.222216170865379   0.111104184801580   0.875000000000000   1.0000000
N2   N   0.722220592485624   0.611112035611130   0.875000000000000   1.0000000
N2   N   0.555554680602869   0.111104184801580   0.875000000000000   1.0000000
N2   N   0.888888888888886   0.111111111111114   0.875000000000000   1.0000000
B2   B   0.109840748903421   0.054685545861053   0.375000000000000   1.0000000
B2   B   0.618606637398439   0.570546608130203   0.375000000000000   1.0000000
B2   B   0.444324695425162   0.054589707111631   0.375000000000000   1.0000000
B2   B   0.945410292888371   0.555675304574837   0.375000000000000   1.0000000
B2   B   0.778133505405219   0.055733419369277   0.375000000000000   1.0000000
B2   B   0.111310803353783   0.722322068343555   0.875000000000000   1.0000000
B2   B   0.444352258592537   0.722051504205394   0.875000000000000   1.0000000
B2   B   0.277646278442762   0.222292856433968   0.875000000000000   1.0000000
B2   B   0.777707143566027   0.722353721557239   0.875000000000000   1.0000000
B2   B   0.611313244657878   0.222292856433968   0.875000000000000   1.0000000
B2   B   0.944341630974937   0.222016595283202   0.875000000000000   1.0000000
B2   B   0.277640306375089   0.722359693624914   0.375000000000000   1.0000000
B2   B   0.109475517408114   0.221404425370722   0.375000000000000   1.0000000
B2   B   0.443438023078516   0.220209379490367   0.375000000000000   1.0000000
B2   B   0.612247160351490   0.726717566955163   0.375000000000000   1.0000000
B2   B   0.945410292888371   0.723068321646868   0.375000000000000   1.0000000
B2   B   0.778595574629277   0.221404425370722   0.375000000000000   1.0000000
B2   B   0.111011556563187   0.888988443436812   0.875000000000000   1.0000000
B2   B   0.444643553540299   0.888988443436812   0.875000000000000   1.0000000
B2   B   0.277646278442762   0.388686755342123   0.875000000000000   1.0000000
B2   B   0.611043084209670   0.388956915790331   0.875000000000000   1.0000000
B2   B   0.777696897106015   0.888727127545357   0.875000000000000   1.0000000
B2   B   0.944648534953437   0.388978508396844   0.875000000000000   1.0000000
B2   B   0.109840748903421   0.388488536375697   0.375000000000000   1.0000000
B2   B   0.277640306375089   0.888613946083507   0.375000000000000   1.0000000
B2   B   0.611511463624307   0.890159251096574   0.375000000000000   1.0000000
B2   B   0.429453391869801   0.381393362601563   0.375000000000000   1.0000000
B2   B   0.945314454138948   0.890159251096574   0.375000000000000   1.0000000
B2   B   0.781137073270342   0.387752839648510   0.375000000000000   1.0000000
B2   B   0.277948495794608   0.555647741407462   0.875000000000000   1.0000000
B2   B   0.110996640110074   0.055351465046559   0.875000000000000   1.0000000
B2   B   0.611043084209670   0.555419501752667   0.875000000000000   1.0000000
B2   B   0.444352258592537   0.055634087720484   0.875000000000000   1.0000000
B2   B   0.944365912279515   0.555647741407462   0.875000000000000   1.0000000
B2   B   0.111136200096267   0.555605733525865   0.375000000000000   1.0000000
B2   B   0.777983404716797   0.055658369025067   0.875000000000000   1.0000000
B2   B   0.276931678353133   0.054589707111631   0.375000000000000   1.0000000
B2   B   0.443438023078516   0.556561976921483   0.375000000000000   1.0000000
B2   B   0.779790620509633   0.556561976921483   0.375000000000000   1.0000000
B2   B   0.611511463624307   0.054685545861053   0.375000000000000   1.0000000
B2   B   0.444335401184187   0.555664598815810   0.875000000000000   1.0000000
B2   B   0.944266580630724   0.055733419369277   0.375000000000000   1.0000000
B2   B   0.277677931656442   0.722322068343555   0.875000000000000   1.0000000
B2   B   0.111272872454643   0.222303102893985   0.875000000000000   1.0000000
B2   B   0.444335401184187   0.222004135701712   0.875000000000000   1.0000000
B2   B   0.611313244657879   0.722353721557239   0.875000000000000   1.0000000
B2   B   0.944365912279515   0.722051504205394   0.875000000000000   1.0000000
B2   B   0.777696897106015   0.222303102893985   0.875000000000000   1.0000000
B2   B   0.111386053916497   0.722359693624914   0.375000000000000   1.0000000
B2   B   0.444324695425162   0.723068321646868   0.375000000000000   1.0000000
B2   B   0.273282433044839   0.218862926729656   0.375000000000000   1.0000000
B2   B   0.781137073270342   0.726717566955163   0.375000000000000   1.0000000
B2   B   0.612247160351490   0.218862926729656   0.375000000000000   1.0000000
B2   B   0.944266580630724   0.221866494594781   0.375000000000000   1.0000000
B2   B   0.110996640110074   0.388978508396844   0.875000000000000   1.0000000
B2   B   0.277677931656442   0.888689196646212   0.875000000000000   1.0000000
B2   B   0.611021491603154   0.889003359889926   0.875000000000000   1.0000000
B2   B   0.444580498247336   0.388956915790331   0.875000000000000   1.0000000
B2   B   0.944648534953437   0.889003359889926   0.875000000000000   1.0000000
B2   B   0.111136200096267   0.888863799903732   0.375000000000000   1.0000000
B2   B   0.777707143566027   0.388686755342123   0.875000000000000   1.0000000
B2   B   0.444394266474140   0.888863799903732   0.375000000000000   1.0000000
B2   B   0.273282433044839   0.387752839648510   0.375000000000000   1.0000000
B2   B   0.276931678353134   0.555675304574837   0.375000000000000   1.0000000
B2   B   0.618606637398439   0.381393362601563   0.375000000000000   1.0000000
B2   B   0.778595574629277   0.890524482591887   0.375000000000000   1.0000000
B2   B   0.945314454138948   0.388488536375697   0.375000000000000   1.0000000
B2   B   0.111011556563187   0.555356446459700   0.875000000000000   1.0000000
B2   B   0.277948495794608   0.055634087720484   0.875000000000000   1.0000000
B2   B   0.777995864298290   0.555664598815810   0.875000000000000   1.0000000
B2   B   0.611021491603154   0.055351465046559   0.875000000000000   1.0000000
B2   B   0.944341630974937   0.055658369025067   0.875000000000000   1.0000000
B2   B   0.055522120672365   0.111079480038866   0.125098788250519   1.0000000
B2   B   0.555514280560672   0.611259628743354   0.124889813517524   1.0000000
B2   B   0.388802755241642   0.110938843816630   0.124951886793822   1.0000000
B2   B   0.889061156183373   0.611197244758354   0.124951886793822   1.0000000
B2   B   0.722224026033170   0.111079480038866   0.125098788250519   1.0000000
B2   B   0.055627583651679   0.777805567418089   0.624913694744415   1.0000000
B2   B   0.388844650433075   0.777805567418089   0.624913694744415   1.0000000
B2   B   0.222117605944663   0.277725469638998   0.625048472104638   1.0000000
B2   B   0.722274530361001   0.777882394055339   0.625048472104638   1.0000000
B2   B   0.555514280560672   0.277587985150657   0.625110186482477   1.0000000
B2   B   0.888920519961131   0.277775973966836   0.624901211749479   1.0000000
B2   B   0.222222222222221   0.777777777777779   0.125030699876767   1.0000000
B2   B   0.055522120672365   0.277775973966836   0.125098788250519   1.0000000
B2   B   0.388740371256652   0.277587985150657   0.124889813517524   1.0000000
B2   B   0.555526560417020   0.777857917168418   0.125033611507002   1.0000000
B2   B   0.888998023418068   0.777857917168418   0.125033611507002   1.0000000
B2   B   0.722274530361001   0.277725469638998   0.124951527895364   1.0000000
B2   B   0.055569359207398   0.944430640792601   0.624960232955749   1.0000000
B2   B   0.388844650433075   0.944372416348321   0.624913694744415   1.0000000
B2   B   0.222142082831585   0.444473439582983   0.624966388492996   1.0000000
B2   B   0.555555555555557   0.444444444444443   0.625541787457613   1.0000000
B2   B   0.722224026033170   0.944477879327634   0.624901211749479   1.0000000
B2   B   0.888998023418068   0.444473439582983   0.624966388492996   1.0000000
B2   B   0.055569359207398   0.444472051748127   0.125039767044256   1.0000000
B2   B   0.222194432581908   0.944372416348321   0.125086305255584   1.0000000
B2   B   0.555527948251873   0.944430640792601   0.125039767044256   1.0000000
B2   B   0.388740371256652   0.444485719439329   0.124889813517524   1.0000000
B2   B   0.888920519961131   0.944477879327634   0.125098788250519   1.0000000
B2   B   0.722412014849346   0.444485719439329   0.124889813517524   1.0000000
B2   B   0.222194432581908   0.611155349566924   0.624913694744415   1.0000000
B2   B   0.055522120672365   0.111079480038866   0.624901211749479   1.0000000
B2   B   0.555514280560672   0.611259628743354   0.625110186482477   1.0000000
B2   B   0.388802755241642   0.110938843816630   0.625048113206182   1.0000000
B2   B   0.889061156183373   0.611197244758354   0.625048113206182   1.0000000
B2   B   0.055627583651679   0.611155349566924   0.125086305255584   1.0000000
B2   B   0.722224026033170   0.111079480038866   0.624901211749479   1.0000000
B2   B   0.222142082831585   0.111001976581933   0.125033611507002   1.0000000
B2   B   0.388802755241642   0.611197244758354   0.124951886793822   1.0000000
B2   B   0.722412014849346   0.611259628743354   0.124889813517524   1.0000000
B2   B   0.555526560417020   0.111001976581933   0.125033611507002   1.0000000
B2   B   0.388802755241642   0.611197244758354   0.625048113206182   1.0000000
B2   B   0.888888888888886   0.111111111111114   0.125054499015778   1.0000000
B2   B   0.222222222222221   0.777777777777779   0.624969300123236   1.0000000
B2   B   0.055522120672365   0.277775973966836   0.624901211749479   1.0000000
B2   B   0.388740371256652   0.277587985150657   0.625110186482477   1.0000000
B2   B   0.555526560417020   0.777857917168418   0.624966388492996   1.0000000
B2   B   0.888998023418068   0.777857917168418   0.624966388492996   1.0000000
B2   B   0.722274530361001   0.277725469638998   0.625048472104638   1.0000000
B2   B   0.055627583651679   0.777805567418089   0.125086305255584   1.0000000
B2   B   0.388844650433075   0.777805567418089   0.125086305255584   1.0000000
B2   B   0.222117605944663   0.277725469638998   0.124951527895364   1.0000000
B2   B   0.722274530361001   0.777882394055339   0.124951527895364   1.0000000
B2   B   0.555514280560672   0.277587985150657   0.124889813517524   1.0000000
B2   B   0.888920519961131   0.277775973966836   0.125098788250519   1.0000000
B2   B   0.055569359207398   0.444472051748127   0.624960232955749   1.0000000
B2   B   0.222194432581908   0.944372416348321   0.624913694744415   1.0000000
B2   B   0.555527948251873   0.944430640792601   0.624960232955749   1.0000000
B2   B   0.388740371256652   0.444485719439329   0.625110186482477   1.0000000
B2   B   0.888920519961131   0.944477879327634   0.624901211749479   1.0000000
B2   B   0.055569359207398   0.944430640792601   0.125039767044256   1.0000000
B2   B   0.722412014849346   0.444485719439329   0.625110186482477   1.0000000
B2   B   0.388844650433075   0.944372416348321   0.125086305255584   1.0000000
B2   B   0.222142082831585   0.444473439582983   0.125033611507002   1.0000000
B2   B   0.222194432581908   0.611155349566924   0.125086305255584   1.0000000
B2   B   0.555555555555557   0.444444444444443   0.124458212542384   1.0000000
B2   B   0.722224026033170   0.944477879327634   0.125098788250519   1.0000000
B2   B   0.888998023418068   0.444473439582983   0.125033611507002   1.0000000
B2   B   0.055627583651679   0.611155349566924   0.624913694744415   1.0000000
B2   B   0.222142082831585   0.111001976581933   0.624966388492996   1.0000000
B2   B   0.722412014849346   0.611259628743354   0.625110186482477   1.0000000
B2   B   0.555526560417020   0.111001976581933   0.624966388492996   1.0000000
B2   B   0.888888888888886   0.111111111111114   0.624945500984222   1.0000000
B2   B   0.555555555555557   0.444444444444443   0.375000000000000   1.0000000


