data_1
_audit_creation_method   'vasp2cif'
_cell_length_a    14.93631414619966
_cell_length_b    14.936314146199727
_cell_length_c    13.341276283792837
_cell_angle_alpha    90.0
_cell_angle_beta    90.0
_cell_angle_gamma    119.99999999999984

_symmetry_space_group_name_H-M    'P 1'
loop_
_atom_site_label
_atom_site_type_symbol
_atom_site_fract_x
_atom_site_fract_y
_atom_site_fract_z
_atom_site_occupancy
N2   N   0.111123251987520   0.055564829315947   0.125036451017917   1.0000000
N2   N   0.611183993527000   0.555530715861234   0.123896413270393   1.0000000
N2   N   0.444450505045043   0.055555503291055   0.125069668315396   1.0000000
N2   N   0.944460569555149   0.555548806296187   0.125073353349454   1.0000000
N2   N   0.777780800546542   0.055571232579892   0.124996049618551   1.0000000
N2   N   0.111118033980416   0.722214082800288   0.624986543528389   1.0000000
N2   N   0.444450651319034   0.722210099989942   0.625053166681834   1.0000000
N2   N   0.277809239651023   0.222246857444154   0.624818315961564   1.0000000
N2   N   0.777792681589342   0.722218966033582   0.625072477952822   1.0000000
N2   N   0.611110389078790   0.222231426014184   0.624831295731556   1.0000000
N2   N   0.944443894173213   0.222233603002584   0.624972498561312   1.0000000
N2   N   0.277783654490255   0.722211695106770   0.124993884528384   1.0000000
N2   N   0.111123910961363   0.222236393536830   0.125053594681353   1.0000000
N2   N   0.444463727341980   0.222241505069204   0.125306892305006   1.0000000
N2   N   0.611132199726244   0.722240208657170   0.124510467643971   1.0000000
N2   N   0.944454997849984   0.722216529350740   0.125047079911614   1.0000000
N2   N   0.777775157777263   0.222236181674491   0.125068935209240   1.0000000
N2   N   0.111118580350803   0.888889061020240   0.624968854725954   1.0000000
N2   N   0.444450205622301   0.888882385028495   0.624992090286644   1.0000000
N2   N   0.277791474134579   0.388904560920485   0.624916009213638   1.0000000
N2   N   0.611128124854239   0.388909150159687   0.624747781399742   1.0000000
N2   N   0.777782937057069   0.888894558094250   0.625033174629974   1.0000000
N2   N   0.944446995227537   0.388892635845208   0.624964664783143   1.0000000
N2   N   0.111102344886564   0.388888538950713   0.125002352983981   1.0000000
N2   N   0.277785940845839   0.888884953354613   0.125021854252330   1.0000000
N2   N   0.611117890027750   0.888893242179850   0.124932619199965   1.0000000
N2   N   0.444495900718947   0.388924103228307   0.125430692473239   1.0000000
N2   N   0.944451343659468   0.888892294245320   0.125030386503784   1.0000000
N2   N   0.777791896754341   0.388898131474321   0.125155714695228   1.0000000
N2   N   0.277774221291606   0.555544996210983   0.625028905709191   1.0000000
N2   N   0.111123251987520   0.055564829315947   0.624963548982083   1.0000000
N2   N   0.611183993527000   0.555530715861234   0.626103586729607   1.0000000
N2   N   0.444450505045043   0.055555503291055   0.624930331684603   1.0000000
N2   N   0.944460569555149   0.555548806296187   0.624926646650545   1.0000000
N2   N   0.111111340935738   0.555547163295713   0.125012710499349   1.0000000
N2   N   0.777780800546542   0.055571232579892   0.625003950381449   1.0000000
N2   N   0.277791614029320   0.055562985071239   0.125089739747784   1.0000000
N2   N   0.444423852858986   0.555530531119735   0.124643385507955   1.0000000
N2   N   0.777808116021915   0.555545953993154   0.125047704604424   1.0000000
N2   N   0.611110215407080   0.055559739269497   0.125021958771386   1.0000000
N2   N   0.444423852858986   0.555530531119735   0.625356614492046   1.0000000
N2   N   0.944452750927111   0.055565899882728   0.125020029140979   1.0000000
N2   N   0.277783654490255   0.722211695106770   0.625006115471617   1.0000000
N2   N   0.111123910961363   0.222236393536830   0.624946405318647   1.0000000
N2   N   0.444463727341980   0.222241505069204   0.624693107694994   1.0000000
N2   N   0.611132199726244   0.722240208657170   0.625489532356028   1.0000000
N2   N   0.944454997849984   0.722216529350740   0.624952920088387   1.0000000
N2   N   0.777775157777263   0.222236181674491   0.624931064790759   1.0000000
N2   N   0.111118033980416   0.722214082800288   0.125013456471612   1.0000000
N2   N   0.444450651319034   0.722210099989942   0.124946833318166   1.0000000
N2   N   0.277809239651023   0.222246857444154   0.125181684038436   1.0000000
N2   N   0.777792681589342   0.722218966033582   0.124927522047178   1.0000000
N2   N   0.611110389078790   0.222231426014184   0.125168704268443   1.0000000
N2   N   0.944443894173213   0.222233603002584   0.125027501438689   1.0000000
N2   N   0.111102344886564   0.388888538950713   0.624997647016018   1.0000000
N2   N   0.277785940845839   0.888884953354613   0.624978145747670   1.0000000
N2   N   0.611117890027750   0.888893242179850   0.625067380800035   1.0000000
N2   N   0.444495900718947   0.388924103228307   0.624569307526761   1.0000000
N2   N   0.944451343659468   0.888892294245320   0.624969613496217   1.0000000
N2   N   0.111118580350803   0.888889061020240   0.125031145274047   1.0000000
N2   N   0.777791896754341   0.388898131474321   0.624844285304771   1.0000000
N2   N   0.444450205622301   0.888882385028495   0.125007909713356   1.0000000
N2   N   0.277791474134579   0.388904560920485   0.125083990786362   1.0000000
N2   N   0.277774221291606   0.555544996210983   0.124971094290808   1.0000000
N2   N   0.611128124854239   0.388909150159687   0.125252218600258   1.0000000
N2   N   0.777782937057069   0.888894558094250   0.124966825370026   1.0000000
N2   N   0.944446995227537   0.388892635845208   0.125035335216858   1.0000000
N2   N   0.111111340935738   0.555547163295713   0.624987289500652   1.0000000
N2   N   0.277791614029320   0.055562985071239   0.624910260252216   1.0000000
N2   N   0.777808116021915   0.555545953993154   0.624952295395576   1.0000000
N2   N   0.611110215407080   0.055559739269497   0.624978041228615   1.0000000
N2   N   0.944452750927111   0.055565899882728   0.624979970859020   1.0000000
N2   N   0.055597544078852   0.111013437554631   0.375000000000000   1.0000000
N2   N   0.389077675643617   0.111396892205338   0.375000000000000   1.0000000
N2   N   0.889828649373728   0.611132688924539   0.375000000000000   1.0000000
N2   N   0.722035587458914   0.111532262695244   0.375000000000000   1.0000000
N2   N   0.055559814411330   0.777783374328919   0.875000000000000   1.0000000
N2   N   0.388890546689319   0.777785260743156   0.875000000000000   1.0000000
N2   N   0.222222905484362   0.277775109495684   0.875000000000000   1.0000000
N2   N   0.722228426782473   0.777781537188775   0.875000000000000   1.0000000
N2   N   0.555553838096866   0.277777002194077   0.875000000000000   1.0000000
N2   N   0.888891432817810   0.277780523440727   0.875000000000000   1.0000000
N2   N   0.222446281981021   0.777859773932219   0.375000000000000   1.0000000
N2   N   0.055165336707363   0.277443215590448   0.375000000000000   1.0000000
N2   N   0.390492281432293   0.278787776160361   0.375000000000000   1.0000000
N2   N   0.555890177433777   0.778353037483908   0.375000000000000   1.0000000
N2   N   0.889594889061325   0.777841769123339   0.375000000000000   1.0000000
N2   N   0.721481875867817   0.278316860267087   0.375000000000000   1.0000000
N2   N   0.055558160287948   0.944448412676571   0.875000000000000   1.0000000
N2   N   0.388893665702033   0.944452678897153   0.875000000000000   1.0000000
N2   N   0.222222697027780   0.444443147400704   0.875000000000000   1.0000000
N2   N   0.555550092831375   0.444439499532688   0.875000000000000   1.0000000
N2   N   0.722225558968761   0.944446984092276   0.875000000000000   1.0000000
N2   N   0.888891214330219   0.444448197604247   0.875000000000000   1.0000000
N2   N   0.054932041532022   0.444084813402384   0.375000000000000   1.0000000
N2   N   0.222583167235169   0.944694038869570   0.375000000000000   1.0000000
N2   N   0.555619235672419   0.945128296270019   0.375000000000000   1.0000000
N2   N   0.388968952572238   0.441527691373479   0.375000000000000   1.0000000
N2   N   0.889603703382769   0.944902587462007   0.375000000000000   1.0000000
N2   N   0.718744810601880   0.444573974271572   0.375000000000000   1.0000000
N2   N   0.222220977600139   0.611112495607022   0.875000000000000   1.0000000
N2   N   0.055556905670508   0.111108799571650   0.875000000000000   1.0000000
N2   N   0.555553567746983   0.611111121726163   0.875000000000000   1.0000000
N2   N   0.388890579115228   0.111113244907949   0.875000000000000   1.0000000
N2   N   0.888891687127648   0.611114654703947   0.875000000000000   1.0000000
N2   N   0.055534882311136   0.610964139000199   0.375000000000000   1.0000000
N2   N   0.722222778771998   0.111112482666939   0.875000000000000   1.0000000
N2   N   0.222784624694834   0.111491544543700   0.375000000000000   1.0000000
N2   N   0.386899104280281   0.610064484274359   0.375000000000000   1.0000000
N2   N   0.724403186003975   0.609973815006031   0.375000000000000   1.0000000
N2   N   0.555560283035772   0.112412917935999   0.375000000000000   1.0000000
N2   N   0.388890198290780   0.611112100052631   0.875000000000000   1.0000000
N2   N   0.888775784690826   0.111177888009430   0.375000000000000   1.0000000
N2   N   0.222224256366217   0.777783715789395   0.875000000000000   1.0000000
N2   N   0.055556743303470   0.277775835614191   0.875000000000000   1.0000000
N2   N   0.388888191886623   0.277776725167957   0.875000000000000   1.0000000
N2   N   0.555555402881566   0.777781491466578   0.875000000000000   1.0000000
N2   N   0.888897601973238   0.777785303845354   0.875000000000000   1.0000000
N2   N   0.722222310998934   0.277779753810338   0.875000000000000   1.0000000
N2   N   0.056066129412865   0.777961603254365   0.375000000000000   1.0000000
N2   N   0.388972986501912   0.777673516306652   0.375000000000000   1.0000000
N2   N   0.221739735292812   0.276808057719507   0.375000000000000   1.0000000
N2   N   0.724039819967572   0.778897650972553   0.375000000000000   1.0000000
N2   N   0.555074853771049   0.280539384020864   0.375000000000000   1.0000000
N2   N   0.888322512333696   0.277786679906598   0.375000000000000   1.0000000
N2   N   0.055555208337640   0.444446585637035   0.875000000000000   1.0000000
N2   N   0.222224939328687   0.944449334129531   0.875000000000000   1.0000000
N2   N   0.555556844463714   0.944450188113679   0.875000000000000   1.0000000
N2   N   0.388891234999784   0.444441143854957   0.875000000000000   1.0000000
N2   N   0.888895630185265   0.944448402066048   0.875000000000000   1.0000000
N2   N   0.056076002849150   0.944692230909398   0.375000000000000   1.0000000
N2   N   0.722221355454227   0.444446397036155   0.875000000000000   1.0000000
N2   N   0.389119855651874   0.944731376372927   0.375000000000000   1.0000000
N2   N   0.222043829905577   0.443556619371168   0.375000000000000   1.0000000
N2   N   0.221553277611645   0.610790775232760   0.375000000000000   1.0000000
N2   N   0.722440409735113   0.944754090991135   0.375000000000000   1.0000000
N2   N   0.887468057051014   0.444267279766409   0.375000000000000   1.0000000
N2   N   0.055554905252685   0.611112832651263   0.875000000000000   1.0000000
N2   N   0.222220454703464   0.111109540253935   0.875000000000000   1.0000000
N2   N   0.722227438337050   0.611116211230396   0.875000000000000   1.0000000
N2   N   0.555555856014087   0.111111950464912   0.875000000000000   1.0000000
N2   N   0.888892648428015   0.111110493800770   0.875000000000000   1.0000000
B2   B   0.111309045795316   0.055687678552197   0.375000000000000   1.0000000
B2   B   0.615078330996342   0.557437281262318   0.375000000000000   1.0000000
B2   B   0.444579673705219   0.055615922303051   0.375000000000000   1.0000000
B2   B   0.944766924168650   0.555435342010875   0.375000000000000   1.0000000
B2   B   0.777560599152594   0.055528214909399   0.375000000000000   1.0000000
B2   B   0.111119525612358   0.722229783207283   0.875000000000000   1.0000000
B2   B   0.444463097828595   0.722220263027254   0.875000000000000   1.0000000
B2   B   0.277769717655203   0.222225838753688   0.875000000000000   1.0000000
B2   B   0.777761141191052   0.722232573582561   0.875000000000000   1.0000000
B2   B   0.611110725050568   0.222213539734344   0.875000000000000   1.0000000
B2   B   0.944446021375985   0.222210583287505   0.875000000000000   1.0000000
B2   B   0.277960306734890   0.722083520560074   0.375000000000000   1.0000000
B2   B   0.110517025710473   0.221727626654414   0.375000000000000   1.0000000
B2   B   0.444094190926438   0.221562978603166   0.375000000000000   1.0000000
B2   B   0.612221842463051   0.722181825194747   0.375000000000000   1.0000000
B2   B   0.945086872750134   0.722532980381457   0.375000000000000   1.0000000
B2   B   0.777353104886594   0.222383276607028   0.375000000000000   1.0000000
B2   B   0.111103110299038   0.888887594318807   0.875000000000000   1.0000000
B2   B   0.444452740857167   0.888872842963627   0.875000000000000   1.0000000
B2   B   0.277798356742002   0.388914485770408   0.875000000000000   1.0000000
B2   B   0.611107597683647   0.388914087090782   0.875000000000000   1.0000000
B2   B   0.777759332909311   0.888864727325042   0.875000000000000   1.0000000
B2   B   0.944457282183322   0.388894341911732   0.875000000000000   1.0000000
B2   B   0.110874466942997   0.388541674547400   0.375000000000000   1.0000000
B2   B   0.278034702801013   0.888941972836606   0.375000000000000   1.0000000
B2   B   0.610972892729238   0.888861649260906   0.375000000000000   1.0000000
B2   B   0.445059598361473   0.388196350849541   0.375000000000000   1.0000000
B2   B   0.944819604928560   0.889056115059645   0.375000000000000   1.0000000
B2   B   0.776000300272906   0.388917783910389   0.375000000000000   1.0000000
B2   B   0.277810818133685   0.555575346453844   0.875000000000000   1.0000000
B2   B   0.111095020316791   0.055544885933265   0.875000000000000   1.0000000
B2   B   0.611103779718458   0.555602506087743   0.875000000000000   1.0000000
B2   B   0.444443971818832   0.055539636856817   0.875000000000000   1.0000000
B2   B   0.944452079118973   0.555572376184220   0.875000000000000   1.0000000
B2   B   0.110830695111467   0.555283103554893   0.375000000000000   1.0000000
B2   B   0.777769595553568   0.055526905191629   0.875000000000000   1.0000000
B2   B   0.277800357046515   0.055519013819808   0.375000000000000   1.0000000
B2   B   0.441923696745792   0.553927938363461   0.375000000000000   1.0000000
B2   B   0.779685722138730   0.556075359370936   0.375000000000000   1.0000000
B2   B   0.610994148264413   0.056117152291708   0.375000000000000   1.0000000
B2   B   0.444478987633747   0.555592489399420   0.875000000000000   1.0000000
B2   B   0.944475802890212   0.055626084883850   0.375000000000000   1.0000000
B2   B   0.277797181310883   0.722224616423047   0.875000000000000   1.0000000
B2   B   0.111108721793229   0.222219536234419   0.875000000000000   1.0000000
B2   B   0.444437684636885   0.222224236482688   0.875000000000000   1.0000000
B2   B   0.611101003827162   0.722211211605935   0.875000000000000   1.0000000
B2   B   0.944439817402754   0.722237083826688   0.875000000000000   1.0000000
B2   B   0.777781596235626   0.222209084975425   0.875000000000000   1.0000000
B2   B   0.111411750603740   0.722234884234681   0.375000000000000   1.0000000
B2   B   0.444740197338742   0.721660498532035   0.375000000000000   1.0000000
B2   B   0.277698778108150   0.222319480629892   0.375000000000000   1.0000000
B2   B   0.778273306683810   0.722586851238952   0.375000000000000   1.0000000
B2   B   0.610927357621111   0.223562128660679   0.375000000000000   1.0000000
B2   B   0.944034051267757   0.222105055544333   0.375000000000000   1.0000000
B2   B   0.111127850851217   0.388898773807486   0.875000000000000   1.0000000
B2   B   0.277783094445719   0.888882585821135   0.875000000000000   1.0000000
B2   B   0.611104754287917   0.888858613365211   0.875000000000000   1.0000000
B2   B   0.444448726009843   0.388922772083246   0.875000000000000   1.0000000
B2   B   0.944427810435731   0.888882840804367   0.875000000000000   1.0000000
B2   B   0.111446045921349   0.889039350726287   0.375000000000000   1.0000000
B2   B   0.777783144276263   0.388901807758602   0.875000000000000   1.0000000
B2   B   0.444570098762930   0.888775825693064   0.375000000000000   1.0000000
B2   B   0.277382876062367   0.387369243701104   0.375000000000000   1.0000000
B2   B   0.276903254183316   0.555102163603043   0.375000000000000   1.0000000
B2   B   0.607736193106075   0.390949377757469   0.375000000000000   1.0000000
B2   B   0.778457404874480   0.889308679009431   0.375000000000000   1.0000000
B2   B   0.943653818961043   0.388778457978642   0.375000000000000   1.0000000
B2   B   0.111129595148569   0.555566328568796   0.875000000000000   1.0000000
B2   B   0.277767511592119   0.055546496793322   0.875000000000000   1.0000000
B2   B   0.777770903454425   0.555588494738557   0.875000000000000   1.0000000
B2   B   0.611110198687050   0.055529276898399   0.875000000000000   1.0000000
B2   B   0.944431603935443   0.055537266978301   0.875000000000000   1.0000000
B2   B   0.055528502315014   0.111108314818995   0.124994694461524   1.0000000
B2   B   0.555582085468089   0.611155505909087   0.125568924332795   1.0000000
B2   B   0.388883343748534   0.111066477880365   0.125002258592400   1.0000000
B2   B   0.888913704939390   0.611130921806999   0.125002068646377   1.0000000
B2   B   0.722219581722970   0.111070991723867   0.125000009608795   1.0000000
B2   B   0.055548228888092   0.777754465497098   0.624998805025847   1.0000000
B2   B   0.388945212468912   0.777710766513341   0.624950843158705   1.0000000
B2   B   0.222234923869660   0.277856189686602   0.624989379972830   1.0000000
B2   B   0.722089072079148   0.777701666199920   0.624988258397313   1.0000000
B2   B   0.555589494144774   0.277803804496953   0.624977264402772   1.0000000
B2   B   0.888907798545886   0.277783984019617   0.625000736778001   1.0000000
B2   B   0.222250534759532   0.777735112076961   0.124998562980038   1.0000000
B2   B   0.055557783624054   0.277805354590499   0.124995376866737   1.0000000
B2   B   0.388917330994029   0.277859388493184   0.125073961381846   1.0000000
B2   B   0.555593636879429   0.777683889799595   0.125062083584090   1.0000000
B2   B   0.888810689084985   0.777748294666087   0.125033091083367   1.0000000
B2   B   0.722255935749802   0.277781329014823   0.125006048841814   1.0000000
B2   B   0.055511894805422   0.944413329612981   0.624999853753434   1.0000000
B2   B   0.388902809907843   0.944369901889833   0.625001394959321   1.0000000
B2   B   0.222258261938652   0.444507018209917   0.624987441176239   1.0000000
B2   B   0.555658781308724   0.444679267162564   0.625332892623323   1.0000000
B2   B   0.722182391402883   0.944379707213444   0.624982040110241   1.0000000
B2   B   0.888940813834753   0.444467615925447   0.624992824082657   1.0000000
B2   B   0.055587845064984   0.444463004407913   0.124998140621177   1.0000000
B2   B   0.222210872330704   0.944395087080894   0.124992634628604   1.0000000
B2   B   0.555570954312200   0.944365372072691   0.125020774800634   1.0000000
B2   B   0.388972078693278   0.444660633693103   0.125076105604703   1.0000000
B2   B   0.888817153687642   0.944399484094886   0.125024202185570   1.0000000
B2   B   0.722295230563551   0.444521770780947   0.124954209828611   1.0000000
B2   B   0.222274113560481   0.611105427220680   0.624983797935088   1.0000000
B2   B   0.055528502315014   0.111108314818995   0.625005305538476   1.0000000
B2   B   0.555582085468089   0.611155505909087   0.624431075667205   1.0000000
B2   B   0.388883343748534   0.111066477880365   0.624997741407599   1.0000000
B2   B   0.888913704939390   0.611130921806999   0.624997931353623   1.0000000
B2   B   0.055597362252455   0.611112200791868   0.125002519537313   1.0000000
B2   B   0.722219581722970   0.111070991723867   0.624999990391204   1.0000000
B2   B   0.222206319401374   0.111107962186171   0.125000236692699   1.0000000
B2   B   0.388980739475586   0.611114451159250   0.125051497603446   1.0000000
B2   B   0.722152388257224   0.611138447033769   0.124668839073914   1.0000000
B2   B   0.555567310801090   0.111060122013095   0.124998659960097   1.0000000
B2   B   0.388980739475586   0.611114451159250   0.624948502396553   1.0000000
B2   B   0.888866058391734   0.111090867300959   0.125002130701943   1.0000000
B2   B   0.222250534759532   0.777735112076961   0.625001437019961   1.0000000
B2   B   0.055557783624054   0.277805354590499   0.625004623133263   1.0000000
B2   B   0.388917330994029   0.277859388493184   0.624926038618154   1.0000000
B2   B   0.555593636879429   0.777683889799595   0.624937916415911   1.0000000
B2   B   0.888810689084985   0.777748294666087   0.624966908916633   1.0000000
B2   B   0.722255935749802   0.277781329014823   0.624993951158186   1.0000000
B2   B   0.055548228888092   0.777754465497098   0.125001194974153   1.0000000
B2   B   0.388945212468912   0.777710766513341   0.125049156841295   1.0000000
B2   B   0.222234923869660   0.277856189686602   0.125010620027170   1.0000000
B2   B   0.722089072079148   0.777701666199920   0.125011741602687   1.0000000
B2   B   0.555589494144774   0.277803804496953   0.125022735597228   1.0000000
B2   B   0.888907798545886   0.277783984019617   0.124999263222000   1.0000000
B2   B   0.055587845064984   0.444463004407913   0.625001859378824   1.0000000
B2   B   0.222210872330704   0.944395087080894   0.625007365371396   1.0000000
B2   B   0.555570954312200   0.944365372072691   0.624979225199366   1.0000000
B2   B   0.388972078693278   0.444660633693103   0.624923894395297   1.0000000
B2   B   0.888817153687642   0.944399484094886   0.624975797814430   1.0000000
B2   B   0.055511894805422   0.944413329612981   0.125000146246566   1.0000000
B2   B   0.722295230563551   0.444521770780947   0.625045790171390   1.0000000
B2   B   0.388902809907843   0.944369901889833   0.124998605040678   1.0000000
B2   B   0.222258261938652   0.444507018209917   0.125012558823761   1.0000000
B2   B   0.222274113560481   0.611105427220680   0.125016202064911   1.0000000
B2   B   0.555658781308724   0.444679267162564   0.124667107376677   1.0000000
B2   B   0.722182391402883   0.944379707213444   0.125017959889759   1.0000000
B2   B   0.888940813834753   0.444467615925447   0.125007175917344   1.0000000
B2   B   0.055597362252455   0.611112200791868   0.624997480462687   1.0000000
B2   B   0.222206319401374   0.111107962186171   0.624999763307302   1.0000000
B2   B   0.722152388257224   0.611138447033769   0.625331160926085   1.0000000
B2   B   0.555567310801090   0.111060122013095   0.625001340039903   1.0000000
B2   B   0.888866058391734   0.111090867300959   0.624997869298057   1.0000000
C2   C   0.554612402640414   0.606785884442135   0.375000000000000   1.0000000


