data_1
_audit_creation_method   'vasp2cif'
_cell_length_a    14.93631414619966
_cell_length_b    14.936314146199727
_cell_length_c    13.341276283792837
_cell_angle_alpha    90.0
_cell_angle_beta    90.0
_cell_angle_gamma    119.99999999999984

_symmetry_space_group_name_H-M    'P 1'
loop_
_atom_site_label
_atom_site_type_symbol
_atom_site_fract_x
_atom_site_fract_y
_atom_site_fract_z
_atom_site_occupancy
Sn2   Sn   0.490332082513973   0.411832707923657   0.375000000000000   1.0000000
N2   N   0.111096712411779   0.055536802955728   0.124799475848326   1.0000000
N2   N   0.611114404236910   0.555603545396302   0.125358518213005   1.0000000
N2   N   0.444381005295940   0.055489548303555   0.124840186691868   1.0000000
N2   N   0.944394948541653   0.555531173522692   0.125274354088698   1.0000000
N2   N   0.777745878739670   0.055539606036507   0.125239297490733   1.0000000
N2   N   0.111041664519157   0.722187498926243   0.624779951972854   1.0000000
N2   N   0.444381005295940   0.722224790325725   0.625159813308136   1.0000000
N2   N   0.277807572745739   0.222220268823551   0.625046694933165   1.0000000
N2   N   0.777752747922075   0.722224684669114   0.624942212873675   1.0000000
N2   N   0.611061909280029   0.222156625053650   0.625266854946777   1.0000000
N2   N   0.944438232018359   0.222219264200165   0.624814714561862   1.0000000
N2   N   0.277702235313142   0.722197775944423   0.125169759919038   1.0000000
N2   N   0.111142406022042   0.222237869677687   0.124730478501882   1.0000000
N2   N   0.444428300046577   0.222177245504723   0.125149223618438   1.0000000
N2   N   0.611061909280029   0.722238617559690   0.124733145053245   1.0000000
N2   N   0.944394948541653   0.722197108352287   0.125274354088698   1.0000000
N2   N   0.777740506933858   0.222195611635464   0.125155257226208   1.0000000
N2   N   0.111053157847177   0.888848904582076   0.624825201705528   1.0000000
N2   N   0.444371336750793   0.888852335042054   0.624746372804119   1.0000000
N2   N   0.277807572745739   0.388920637255514   0.625046694933165   1.0000000
N2   N   0.611114404236910   0.388844192173944   0.624641481786976   1.0000000
N2   N   0.777740506933858   0.888878228631759   0.624844742773786   1.0000000
N2   N   0.944415233940064   0.388870580852985   0.624725293284254   1.0000000
N2   N   0.111096712411779   0.388893242789384   0.124799475848326   1.0000000
N2   N   0.277702235313142   0.888837792702069   0.125169759919038   1.0000000
N2   N   0.611053906555368   0.888877388702817   0.125123513166655   1.0000000
N2   N   0.444622937615684   0.388978135474510   0.130741493676204   1.0000000
N2   N   0.944415233940064   0.888877986420419   0.125274706715736   1.0000000
N2   N   0.777752747922075   0.388861396586286   0.125057787126330   1.0000000
N2   N   0.277733580439128   0.555562789070690   0.625252672575372   1.0000000
N2   N   0.111096712411779   0.055536802955728   0.625200524151700   1.0000000
N2   N   0.611114404236910   0.555603545396302   0.624641481786975   1.0000000
N2   N   0.444381005295940   0.055489548303555   0.625159813308136   1.0000000
N2   N   0.944394948541653   0.555531173522692   0.624725645911299   1.0000000
N2   N   0.111053157847177   0.555537586598439   0.125174798294480   1.0000000
N2   N   0.777745878739670   0.055539606036507   0.624760702509262   1.0000000
N2   N   0.277733580439128   0.055504124701769   0.124747327424632   1.0000000
N2   N   0.444428300046577   0.555584387875187   0.125149223618438   1.0000000
N2   N   0.777734298896326   0.555533816114841   0.125194102092108   1.0000000
N2   N   0.611053906555368   0.055509851185880   0.125123513166655   1.0000000
N2   N   0.444428300046577   0.555584387875187   0.624850776381568   1.0000000
N2   N   0.944438232018359   0.055552301151520   0.125185285438119   1.0000000
N2   N   0.277702235313142   0.722197775944423   0.624830240080975   1.0000000
N2   N   0.111142406022042   0.222237869677687   0.625269521498123   1.0000000
N2   N   0.444428300046577   0.222177245504723   0.624850776381568   1.0000000
N2   N   0.611061909280029   0.722238617559690   0.625266854946777   1.0000000
N2   N   0.944394948541653   0.722197108352287   0.624725645911299   1.0000000
N2   N   0.777740506933858   0.222195611635464   0.624844742773786   1.0000000
N2   N   0.111041664519157   0.722187498926243   0.125220048027152   1.0000000
N2   N   0.444381005295940   0.722224790325725   0.124840186691868   1.0000000
N2   N   0.277807572745739   0.222220268823551   0.124953305066809   1.0000000
N2   N   0.777752747922075   0.722224684669114   0.125057787126330   1.0000000
N2   N   0.611061909280029   0.222156625053650   0.124733145053245   1.0000000
N2   N   0.944438232018359   0.222219264200165   0.125185285438119   1.0000000
N2   N   0.111096712411779   0.388893242789384   0.625200524151700   1.0000000
N2   N   0.277702235313143   0.888837792702069   0.624830240080975   1.0000000
N2   N   0.611053906555368   0.888877388702817   0.624876486833348   1.0000000
N2   N   0.444622937615684   0.388978135474510   0.619258506323810   1.0000000
N2   N   0.944415233940064   0.888877986420419   0.624725293284254   1.0000000
N2   N   0.111053157847177   0.888848904582076   0.125174798294480   1.0000000
N2   N   0.777752747922075   0.388861396586286   0.624942212873675   1.0000000
N2   N   0.444371336750793   0.888852335042054   0.125253627195900   1.0000000
N2   N   0.277807572745739   0.388920637255514   0.124953305066809   1.0000000
N2   N   0.277733580439129   0.555562789070690   0.124747327424632   1.0000000
N2   N   0.611114404236910   0.388844192173944   0.125358518213005   1.0000000
N2   N   0.777740506933858   0.888878228631759   0.125155257226208   1.0000000
N2   N   0.944415233940064   0.388870580852985   0.125274706715736   1.0000000
N2   N   0.111053157847177   0.555537586598439   0.624825201705528   1.0000000
N2   N   0.277733580439128   0.055504124701769   0.625252672575372   1.0000000
N2   N   0.777734298896326   0.555533816114841   0.624805897907897   1.0000000
N2   N   0.611053906555368   0.055509851185880   0.624876486833348   1.0000000
N2   N   0.944438232018359   0.055552301151520   0.624814714561862   1.0000000
N2   N   0.058584528754158   0.112777110329914   0.375000000000000   1.0000000
N2   N   0.556337379011991   0.621332620825089   0.375000000000000   1.0000000
N2   N   0.388046761720156   0.103970691304453   0.375000000000000   1.0000000
N2   N   0.886782222835339   0.610057778084355   0.375000000000000   1.0000000
N2   N   0.724799330932420   0.111371514538143   0.375000000000000   1.0000000
N2   N   0.055539955897427   0.777773602059553   0.875000000000000   1.0000000
N2   N   0.388888484259101   0.777774594878901   0.875000000000000   1.0000000
N2   N   0.222213945105752   0.277773639219539   0.875000000000000   1.0000000
N2   N   0.722217287283441   0.777778546111398   0.875000000000000   1.0000000
N2   N   0.555548133012026   0.277776428911654   0.875000000000000   1.0000000
N2   N   0.888886652824370   0.277774616861260   0.875000000000000   1.0000000
N2   N   0.220928012747030   0.777130673040189   0.375000000000000   1.0000000
N2   N   0.058584528754159   0.279140751757576   0.375000000000000   1.0000000
N2   N   0.388220869464003   0.265540306589878   0.375000000000000   1.0000000
N2   N   0.556669162134891   0.782845392917659   0.375000000000000   1.0000000
N2   N   0.889776785490046   0.779053034100942   0.375000000000000   1.0000000
N2   N   0.724509069495985   0.276246117360950   0.375000000000000   1.0000000
N2   N   0.055546729572684   0.944444270988484   0.875000000000000   1.0000000
N2   N   0.388888484259101   0.944447222713551   0.875000000000000   1.0000000
N2   N   0.222215139456543   0.444432484245518   0.875000000000000   1.0000000
N2   N   0.555528817062277   0.444431075197803   0.875000000000000   1.0000000
N2   N   0.722220738657688   0.944445103045272   0.875000000000000   1.0000000
N2   N   0.888878680522137   0.444434050920182   0.875000000000000   1.0000000
N2   N   0.056212839271304   0.445117617515108   0.375000000000000   1.0000000
N2   N   0.221104263610115   0.942208007275326   0.375000000000000   1.0000000
N2   N   0.556720829700070   0.945027081516695   0.375000000000000   1.0000000
N2   N   0.388220869464001   0.456013896207461   0.375000000000000   1.0000000
N2   N   0.891507141710063   0.946614942001529   0.375000000000000   1.0000000
N2   N   0.722827477058312   0.442335818520598   0.375000000000000   1.0000000
N2   N   0.222216498752849   0.611100015849293   0.875000000000000   1.0000000
N2   N   0.055548449811345   0.111108607038254   0.875000000000000   1.0000000
N2   N   0.555548133012026   0.611105037433719   0.875000000000000   1.0000000
N2   N   0.388890245954226   0.111122795377966   0.875000000000000   1.0000000
N2   N   0.888867965327342   0.611100649330350   0.875000000000000   1.0000000
N2   N   0.054212711385387   0.610810286078627   0.375000000000000   1.0000000
N2   N   0.722220738657688   0.111108968945717   0.875000000000000   1.0000000
N2   N   0.222528357409327   0.109251109413745   0.375000000000000   1.0000000
N2   N   0.388046761720156   0.617409403749055   0.375000000000000   1.0000000
N2   N   0.722827477058300   0.613824991871045   0.375000000000000   1.0000000
N2   N   0.556669162134891   0.107157102550598   0.375000000000000   1.0000000
N2   N   0.388890245954226   0.611100783909595   0.875000000000000   1.0000000
N2   N   0.891984069790491   0.112658701561909   0.375000000000000   1.0000000
N2   N   0.222215013080041   0.777774173206689   0.875000000000000   1.0000000
N2   N   0.055548449811345   0.277773176106425   0.875000000000000   1.0000000
N2   N   0.388889243322954   0.277794088775449   0.875000000000000   1.0000000
N2   N   0.555554002660513   0.777777788437903   0.875000000000000   1.0000000
N2   N   0.888878680522137   0.777777962935287   0.875000000000000   1.0000000
N2   N   0.722217287283441   0.277772074505373   0.875000000000000   1.0000000
N2   N   0.054212711385387   0.776735758640084   0.375000000000000   1.0000000
N2   N   0.388407727971115   0.779593235094712   0.375000000000000   1.0000000
N2   N   0.226601468799166   0.279967401066253   0.375000000000000   1.0000000
N2   N   0.724509069495985   0.781596285468360   0.375000000000000   1.0000000
N2   N   0.556337379011992   0.268338091520231   0.375000000000000   1.0000000
N2   N   0.891507141710063   0.278225533041868   0.375000000000000   1.0000000
N2   N   0.055546729572684   0.444435791917537   0.875000000000000   1.0000000
N2   N   0.222216498752849   0.944449816236916   0.875000000000000   1.0000000
N2   N   0.555553728513023   0.944443530923188   0.875000000000000   1.0000000
N2   N   0.388889243322954   0.444428487880839   0.875000000000000   1.0000000
N2   N   0.888886652824370   0.944445369296443   0.875000000000000   1.0000000
N2   N   0.056212839271305   0.944428555089523   0.375000000000000   1.0000000
N2   N   0.722204670015211   0.444433331492740   0.875000000000000   1.0000000
N2   N   0.388407727971115   0.942147826209734   0.375000000000000   1.0000000
N2   N   0.222528357409327   0.446610581328921   0.375000000000000   1.0000000
N2   N   0.221104263610115   0.612229589668127   0.375000000000000   1.0000000
N2   N   0.724799330932425   0.946761149727613   0.375000000000000   1.0000000
N2   N   0.889776785490055   0.444057084722433   0.375000000000000   1.0000000
N2   N   0.055539955897427   0.611099687171225   0.875000000000000   1.0000000
N2   N   0.222215139456543   0.111115988544365   0.875000000000000   1.0000000
N2   N   0.722204670015211   0.611104671855827   0.875000000000000   1.0000000
N2   N   0.555554002660513   0.111109547555954   0.875000000000000   1.0000000
N2   N   0.888888160107162   0.111110746720246   0.875000000000000   1.0000000
B2   B   0.112053817049935   0.055307682884590   0.375000000000000   1.0000000
B2   B   0.616290241459519   0.574323226160141   0.375000000000000   1.0000000
B2   B   0.445205488693070   0.051316116393516   0.375000000000000   1.0000000
B2   B   0.943634026875150   0.555080547587111   0.375000000000000   1.0000000
B2   B   0.781151342903659   0.057242338118498   0.375000000000000   1.0000000
B2   B   0.111109862958570   0.722221598145934   0.875000000000000   1.0000000
B2   B   0.444438971761507   0.722252238623445   0.875000000000000   1.0000000
B2   B   0.277685642139120   0.222167098260638   0.875000000000000   1.0000000
B2   B   0.777817380852502   0.722291518301833   0.875000000000000   1.0000000
B2   B   0.611132863470162   0.222169102783363   0.875000000000000   1.0000000
B2   B   0.944435209690257   0.222206841598835   0.875000000000000   1.0000000
B2   B   0.277123764768374   0.722946379250658   0.375000000000000   1.0000000
B2   B   0.114799560594222   0.224066446963773   0.375000000000000   1.0000000
B2   B   0.443231041519241   0.211837479855757   0.375000000000000   1.0000000
B2   B   0.614040613262626   0.731305832288874   0.375000000000000   1.0000000
B2   B   0.943634026875150   0.721886812621365   0.375000000000000   1.0000000
B2   B   0.780980296396573   0.221834225318890   0.375000000000000   1.0000000
B2   B   0.111099685925191   0.888890079558196   0.875000000000000   1.0000000
B2   B   0.444445197968500   0.888889265650911   0.875000000000000   1.0000000
B2   B   0.277685642139120   0.388851877211824   0.875000000000000   1.0000000
B2   B   0.611139731229401   0.388845589842482   0.875000000000000   1.0000000
B2   B   0.777801918138017   0.888940506644876   0.875000000000000   1.0000000
B2   B   0.944454385693097   0.388866958413763   0.875000000000000   1.0000000
B2   B   0.112053817049935   0.390079467498672   0.375000000000000   1.0000000
B2   B   0.277123764768374   0.887510718851048   0.375000000000000   1.0000000
B2   B   0.613743285475495   0.892499642681435   0.375000000000000   1.0000000
B2   B   0.945890048577521   0.890266142711251   0.375000000000000   1.0000000
B2   B   0.780055880913677   0.387145274245468   0.375000000000000   1.0000000
B2   B   0.277738463369238   0.555549080312907   0.875000000000000   1.0000000
B2   B   0.111069292289382   0.055538409878323   0.875000000000000   1.0000000
B2   B   0.611139731229401   0.555627474720254   0.875000000000000   1.0000000
B2   B   0.444438971761507   0.055520066471399   0.875000000000000   1.0000000
B2   B   0.944465137357016   0.555549430265095   0.875000000000000   1.0000000
B2   B   0.110341455040015   0.555953411863555   0.375000000000000   1.0000000
B2   B   0.777792335648970   0.055562834491148   0.875000000000000   1.0000000
B2   B   0.276854041492115   0.052336504725222   0.375000000000000   1.0000000
B2   B   0.443231041519241   0.564726894996820   0.375000000000000   1.0000000
B2   B   0.776436568688732   0.554884951011045   0.375000000000000   1.0000000
B2   B   0.613743285475495   0.054576976127398   0.375000000000000   1.0000000
B2   B   0.444414568807146   0.555587133845279   0.875000000000000   1.0000000
B2   B   0.947681389390296   0.057642154388900   0.375000000000000   1.0000000
B2   B   0.277765644630820   0.722221111845270   0.875000000000000   1.0000000
B2   B   0.111047238143888   0.222190285738604   0.875000000000000   1.0000000
B2   B   0.444414568807146   0.222160768295184   0.875000000000000   1.0000000
B2   B   0.611132863470162   0.722297094020129   0.875000000000000   1.0000000
B2   B   0.944465137357016   0.722249040425234   0.875000000000000   1.0000000
B2   B   0.777801918138017   0.222194744826466   0.875000000000000   1.0000000
B2   B   0.110004905935586   0.721669119634477   0.375000000000000   1.0000000
B2   B   0.445205488693070   0.727222705632874   0.375000000000000   1.0000000
B2   B   0.278748137719294   0.220144765656342   0.375000000000000   1.0000000
B2   B   0.780055880913677   0.726243940001517   0.375000000000000   1.0000000
B2   B   0.614040613262626   0.216068114307083   0.375000000000000   1.0000000
B2   B   0.947681389390296   0.223372568334749   0.375000000000000   1.0000000
B2   B   0.111069292289382   0.388864215744389   0.875000000000000   1.0000000
B2   B   0.277765644630820   0.888877866118878   0.875000000000000   1.0000000
B2   B   0.611127747808844   0.888922327314434   0.875000000000000   1.0000000
B2   B   0.444368836391002   0.388851084862175   0.875000000000000   1.0000000
B2   B   0.944454385693097   0.888920760612651   0.875000000000000   1.0000000
B2   B   0.110341455040015   0.887721376509790   0.375000000000000   1.0000000
B2   B   0.777817380852490   0.388859195883972   0.875000000000000   1.0000000
B2   B   0.445329858283798   0.889331595808563   0.375000000000000   1.0000000
B2   B   0.278748137719294   0.391936705396287   0.375000000000000   1.0000000
B2   B   0.276854041492115   0.557850870100233   0.375000000000000   1.0000000
B2   B   0.616290241459519   0.375300348632703   0.375000000000000   1.0000000
B2   B   0.780980296396572   0.892479404411004   0.375000000000000   1.0000000
B2   B   0.945890048577521   0.388957239199607   0.375000000000000   1.0000000
B2   B   0.111099685925191   0.555542939700318   0.875000000000000   1.0000000
B2   B   0.277738463369238   0.055522716389661   0.875000000000000   1.0000000
B2   B   0.777819547744425   0.555576440538867   0.875000000000000   1.0000000
B2   B   0.611127747808844   0.055538753827762   0.875000000000000   1.0000000
B2   B   0.944435209690257   0.055561701424768   0.875000000000000   1.0000000
B2   B   0.055513692429161   0.111077173394327   0.124785023307223   1.0000000
B2   B   0.555494002101493   0.611372362291977   0.124478810083677   1.0000000
B2   B   0.388704053260773   0.110794661534911   0.124531029851072   1.0000000
B2   B   0.889062725529327   0.611198029431336   0.124947697676778   1.0000000
B2   B   0.722185226096358   0.111040654941726   0.125007150180000   1.0000000
B2   B   0.055578163536679   0.777783711110152   0.624944785056471   1.0000000
B2   B   0.388756627924883   0.777787009352294   0.625068594177016   1.0000000
B2   B   0.222083049545265   0.277708191439306   0.625279132347070   1.0000000
B2   B   0.722256290680457   0.777923435608195   0.625324262777509   1.0000000
B2   B   0.555494002101493   0.277454973142837   0.625521189916329   1.0000000
B2   B   0.888902572227535   0.277744670823859   0.624947493199140   1.0000000
B2   B   0.222140483459449   0.777736908396406   0.125046490599737   1.0000000
B2   B   0.055513692429161   0.277769852368170   0.124785023307223   1.0000000
B2   B   0.388551213819345   0.277232138343634   0.126419919826454   1.0000000
B2   B   0.555458876401008   0.777883761042996   0.124655312846219   1.0000000
B2   B   0.888997124488453   0.777883652357911   0.124975197300681   1.0000000
B2   B   0.722256290680457   0.277666188405588   0.124675737222498   1.0000000
B2   B   0.055536672369754   0.944422198099303   0.625041668758537   1.0000000
B2   B   0.388756627924883   0.944302951905914   0.625068594177016   1.0000000
B2   B   0.222090033083304   0.444490262292395   0.625466055090945   1.0000000
B2   B   0.555945405085920   0.444639369209624   0.624627285012701   1.0000000
B2   B   0.722185226096358   0.944477904487958   0.624992849820002   1.0000000
B2   B   0.888997124488453   0.444446805463860   0.625024802699317   1.0000000
B2   B   0.055536672369754   0.444447807603771   0.124958331241473   1.0000000
B2   B   0.222118079473625   0.944314281837581   0.124873179435697   1.0000000
B2   B   0.555459763034506   0.944396548183916   0.125020440435425   1.0000000
B2   B   0.388551213819345   0.444652408809040   0.126419919826454   1.0000000
B2   B   0.888902572227535   0.944491234736996   0.125052506800843   1.0000000
B2   B   0.722505563652191   0.444495829251341   0.124574646716080   1.0000000
B2   B   0.222118079473625   0.611137130969402   0.625126820564306   1.0000000
B2   B   0.055513692429161   0.111077173394327   0.625214976692791   1.0000000
B2   B   0.555494002101493   0.611372362291977   0.625521189916329   1.0000000
B2   B   0.388704053260773   0.110794661534911   0.625468970148935   1.0000000
B2   B   0.889062725529327   0.611198029431336   0.625052302323226   1.0000000
B2   B   0.055578163536679   0.611127785759864   0.125055214943521   1.0000000
B2   B   0.722185226096358   0.111040654941726   0.624992849820002   1.0000000
B2   B   0.222090033083304   0.110933104124246   0.124533944909051   1.0000000
B2   B   0.388704053260773   0.611242725059203   0.124531029851072   1.0000000
B2   B   0.722505563652198   0.611343067734211   0.124574646716080   1.0000000
B2   B   0.555458876401008   0.110908448691335   0.124655312846219   1.0000000
B2   B   0.388704053260773   0.611242725059208   0.625468970148935   1.0000000
B2   B   0.888872263795998   0.111102798564672   0.125071901200104   1.0000000
B2   B   0.222140483459449   0.777736908396406   0.624953509400271   1.0000000
B2   B   0.055513692429161   0.277769852368170   0.625214976692791   1.0000000
B2   B   0.388551213819345   0.277232138343634   0.623580080173555   1.0000000
B2   B   0.555458876401008   0.777883761042996   0.625344687153792   1.0000000
B2   B   0.888997124488453   0.777883652357911   0.625024802699317   1.0000000
B2   B   0.722256290680457   0.277666188405588   0.625324262777509   1.0000000
B2   B   0.055578163536679   0.777783711110152   0.125055214943521   1.0000000
B2   B   0.388756627924883   0.777787009352294   0.124931405822974   1.0000000
B2   B   0.222083049545265   0.277708191439306   0.124720867652940   1.0000000
B2   B   0.722256290680457   0.777923435608195   0.124675737222498   1.0000000
B2   B   0.555494002101493   0.277454973142837   0.124478810083677   1.0000000
B2   B   0.888902572227535   0.277744670823859   0.125052506800843   1.0000000
B2   B   0.055536672369754   0.444447807603771   0.625041668758537   1.0000000
B2   B   0.222118079473625   0.944314281837581   0.625126820564306   1.0000000
B2   B   0.555459763034506   0.944396548183916   0.624979559564584   1.0000000
B2   B   0.388551213819345   0.444652408809040   0.623580080173555   1.0000000
B2   B   0.888902572227535   0.944491234736996   0.624947493199140   1.0000000
B2   B   0.055536672369754   0.944422198099303   0.124958331241473   1.0000000
B2   B   0.722505563652198   0.444495829251341   0.625425353283928   1.0000000
B2   B   0.388756627924882   0.944302951905914   0.124931405822974   1.0000000
B2   B   0.222090033083304   0.444490262292395   0.124533944909051   1.0000000
B2   B   0.222118079473625   0.611137130969402   0.124873179435697   1.0000000
B2   B   0.555945405085920   0.444639369209624   0.125372714987291   1.0000000
B2   B   0.722185226096358   0.944477904487958   0.125007150180000   1.0000000
B2   B   0.888997124488453   0.444446805463860   0.124975197300681   1.0000000
B2   B   0.055578163536679   0.611127785759864   0.624944785056471   1.0000000
B2   B   0.222090033083304   0.110933104124246   0.625466055090945   1.0000000
B2   B   0.722505563652198   0.611343067734211   0.625425353283928   1.0000000
B2   B   0.555458876401008   0.110908448691335   0.625344687153792   1.0000000
B2   B   0.888872263795998   0.111102798564670   0.624928098799910   1.0000000


