data_1
_audit_creation_method   'vasp2cif'
_cell_length_a    17.52789999999977
_cell_length_b    17.52789999999977
_cell_length_c    15.0
_cell_angle_alpha    90.0
_cell_angle_beta    90.0
_cell_angle_gamma    119.99999999999916

_symmetry_space_group_name_H-M    'P 1'
loop_
_atom_site_label
_atom_site_type_symbol
_atom_site_fract_x
_atom_site_fract_y
_atom_site_fract_z
_atom_site_occupancy
Ga2   Ga   0.436498086696061   0.503964245972031   0.111239550260238   1.0000000
B2   B   0.904804119057541   0.952573929120396   0.110995460145539   1.0000000
B2   B   0.906223615669299   0.096300049430933   0.111032630798372   1.0000000
B2   B   0.906656114886756   0.239042404288880   0.111085503357526   1.0000000
B2   B   0.906223615669299   0.381352259929364   0.111032630798372   1.0000000
B2   B   0.904804119057541   0.523660595185147   0.110995460145539   1.0000000
B2   B   0.903198851298914   0.665976835130704   0.111043503700061   1.0000000
B2   B   0.903198851298914   0.808652421416213   0.111043503700061   1.0000000
B2   B   0.046811781907114   0.951706302153010   0.111006015215974   1.0000000
B2   B   0.048224383410963   0.095415138622436   0.111009839502563   1.0000000
B2   B   0.049825497921112   0.239362951622235   0.111025901131036   1.0000000
B2   B   0.049825497921112   0.381892951545877   0.111025901131036   1.0000000
B2   B   0.048224383410963   0.524239650036521   0.111009839502563   1.0000000
B2   B   0.046811781907114   0.666537596558101   0.111006015215974   1.0000000
B2   B   0.046456052341943   0.808944084572974   0.110977375497173   1.0000000
B2   B   0.189708748462290   0.951604207332149   0.110996230266434   1.0000000
B2   B   0.190089148077071   0.094025966491384   0.111053562879166   1.0000000
B2   B   0.191757755196847   0.237935340048861   0.111033750622907   1.0000000
B2   B   0.194172848570938   0.382801626908969   0.111031137420942   1.0000000
B2   B   0.191757755196847   0.525252820395988   0.111033750622907   1.0000000
B2   B   0.190089148077071   0.667493586833681   0.111053562879166   1.0000000
B2   B   0.189708748462290   0.809536657934144   0.110996230266434   1.0000000
B2   B   0.333062257210686   0.952247187006844   0.111021473184644   1.0000000
B2   B   0.333178566437078   0.093189985090585   0.111063916815640   1.0000000
B2   B   0.333421518960976   0.233770064752424   0.111044300483186   1.0000000
B2   B   0.335177373933060   0.374698929989634   0.111121899639143   1.0000000
B2   B   0.335177373933060   0.531908849190426   0.111121899639143   1.0000000
B2   B   0.333421518960976   0.671081859455552   0.111044300483186   1.0000000
B2   B   0.333178566437078   0.811418986593493   0.111063916815640   1.0000000
B2   B   0.476781168675744   0.953700168616660   0.111007181481318   1.0000000
B2   B   0.476781168675744   0.094511405306084   0.111007181481318   1.0000000
B2   B   0.476932501872303   0.235233429991531   0.111026968037597   1.0000000
B2   B   0.477679723664146   0.375959160401590   0.111011864451501   1.0000000
B2   B   0.477679723664146   0.673150968509555   0.111011864451501   1.0000000
B2   B   0.476932501872303   0.813129477127779   0.111026968037597   1.0000000
B2   B   0.620341191849575   0.954087629218952   0.111000481277086   1.0000000
B2   B   0.620314385418897   0.095871539554944   0.110985475090121   1.0000000
B2   B   0.620341191849575   0.237683967877622   0.111000481277086   1.0000000
B2   B   0.619990369441013   0.379641423163620   0.111003160168198   1.0000000
B2   B   0.615856442670565   0.520714328819077   0.111040271511362   1.0000000
B2   B   0.615856442670565   0.666572519099482   0.111040271511362   1.0000000
B2   B   0.619990369441013   0.811779351524392   0.111003160168198   1.0000000
B2   B   0.763014258587397   0.953638134660984   0.110992191384243   1.0000000
B2   B   0.763471841737483   0.096330641892966   0.111031109870780   1.0000000
B2   B   0.763471841737483   0.238569893535514   0.111031109870780   1.0000000
B2   B   0.763014258587397   0.380806529173412   0.110992191384243   1.0000000
B2   B   0.761190442865125   0.522947660070807   0.111034334355456   1.0000000
B2   B   0.758723001062062   0.665076703155028   0.111075534375143   1.0000000
B2   B   0.761190442865125   0.809673188042320   0.111034334355456   1.0000000
N2   N   0.951663893541366   0.904230031391292   0.110999351801026   1.0000000
N2   N   0.953015528823429   0.047978813088824   0.110985117071540   1.0000000
N2   N   0.954245277892328   0.191541437894555   0.111037631679439   1.0000000
N2   N   0.954245277892328   0.334130822115772   0.111037631679439   1.0000000
N2   N   0.953015528823429   0.476463697852603   0.110985117071540   1.0000000
N2   N   0.951663893541366   0.618862555825070   0.110999351801026   1.0000000
N2   N   0.951263321357423   0.761346007516213   0.111007559796703   1.0000000
N2   N   0.094384214987641   0.904075871512435   0.110962358969632   1.0000000
N2   N   0.094806960592802   0.046777732639256   0.111005250918719   1.0000000
N2   N   0.096236960067525   0.190550600795444   0.110998948814149   1.0000000
N2   N   0.097803949786989   0.334616321730495   0.110994020154056   1.0000000
N2   N   0.096236960067525   0.477115052946082   0.110998948814149   1.0000000
N2   N   0.094806960592802   0.619457921628548   0.111005250918719   1.0000000
N2   N   0.094384214987641   0.761738748706212   0.110962358969632   1.0000000
N2   N   0.237597860436476   0.904514132833737   0.110974893652954   1.0000000
N2   N   0.237661813601351   0.046269866824532   0.111031156863139   1.0000000
N2   N   0.237877827160487   0.188420322085861   0.111043678623552   1.0000000
N2   N   0.239980545621926   0.333026173575471   0.111034972732184   1.0000000
N2   N   0.239980545621926   0.478383065720448   0.111034972732184   1.0000000
N2   N   0.237877827160487   0.620886198749622   0.111043678623552   1.0000000
N2   N   0.237661813601351   0.762820640451822   0.111031156863139   1.0000000
N2   N   0.381312934336226   0.906114226208693   0.111016256494668   1.0000000
N2   N   0.381312934336226   0.046627401802536   0.111016256494668   1.0000000
N2   N   0.381443944563331   0.186961030974213   0.111041814656455   1.0000000
N2   N   0.381547332379982   0.326465587699073   0.111004002254536   1.0000000
N2   N   0.381547332379982   0.626510438355905   0.111004002254536   1.0000000
N2   N   0.381443944563331   0.765911607264121   0.111041814656455   1.0000000
N2   N   0.525134125772535   0.907753559466336   0.110997699102599   1.0000000
N2   N   0.525030329810662   0.048228655964835   0.110968527772075   1.0000000
N2   N   0.525134125772535   0.188809259981202   0.110997699102599   1.0000000
N2   N   0.525328118602669   0.328968730094269   0.110993460322975   1.0000000
N2   N   0.523293968270680   0.468199564010882   0.111009783529725   1.0000000
N2   N   0.523293968270681   0.626523097934794   0.111009783529725   1.0000000
N2   N   0.525328118602669   0.767788082183403   0.110993460322975   1.0000000
N2   N   0.668233572909256   0.907120011735494   0.110981030290162   1.0000000
N2   N   0.668340293287549   0.049060685007790   0.110982231613113   1.0000000
N2   N   0.668340293287549   0.190706590398767   0.110982231613113   1.0000000
N2   N   0.668233572909256   0.332542254848764   0.110981030290162   1.0000000
N2   N   0.666810224176653   0.474801208061131   0.111005148942581   1.0000000
N2   N   0.663804443244269   0.617616568460133   0.111047191678690   1.0000000
N2   N   0.666810224176653   0.763437709790526   0.111005148942581   1.0000000
N2   N   0.809922965933881   0.905448687453564   0.110982868210378   1.0000000
N2   N   0.811092408672732   0.048937864246358   0.111002144509240   1.0000000
N2   N   0.811362680848000   0.191394831483002   0.111052872383666   1.0000000
N2   N   0.811092408672732   0.333581526544379   0.111002144509240   1.0000000
N2   N   0.809922965933881   0.475902972154319   0.110982868210378   1.0000000
N2   N   0.808180498515961   0.618393952735685   0.111052038389653   1.0000000
N2   N   0.808180498515961   0.761215239455280   0.111052038389653   1.0000000


