data_1
_audit_creation_method   'vasp2cif'
_cell_length_a    17.52789999999977
_cell_length_b    17.52789999999977
_cell_length_c    15.0
_cell_angle_alpha    90.0
_cell_angle_beta    90.0
_cell_angle_gamma    119.99999999999916

_symmetry_space_group_name_H-M    'P 1'
loop_
_atom_site_label
_atom_site_type_symbol
_atom_site_fract_x
_atom_site_fract_y
_atom_site_fract_z
_atom_site_occupancy
B2   B   0.904680512569127   0.952379957562413   0.111079097581687   1.0000000
B2   B   0.904984487093614   0.095016668849383   0.111116997837743   1.0000000
B2   B   0.905151567785821   0.237635413994411   0.111112558957065   1.0000000
B2   B   0.905653474766611   0.380609574201560   0.111099895065159   1.0000000
B2   B   0.906786632970370   0.523996496043975   0.111103754725466   1.0000000
B2   B   0.904722826755345   0.666987862832799   0.111141951444198   1.0000000
B2   B   0.903707410996199   0.809030561164664   0.111103967625079   1.0000000
B2   B   0.047282438560857   0.952719711240181   0.111036638407296   1.0000000
B2   B   0.047621237746616   0.095320944948877   0.111079093121689   1.0000000
B2   B   0.047407303755321   0.237907710094116   0.111082183552414   1.0000000
B2   B   0.047002359603307   0.380990021914383   0.111060113424189   1.0000000
B2   B   0.046980544081888   0.524474636659546   0.111060318509033   1.0000000
B2   B   0.047049967637384   0.667491747205886   0.111095356201801   1.0000000
B2   B   0.047002478547150   0.810093394101539   0.111078275297828   1.0000000
B2   B   0.189908885063494   0.952999900122797   0.111078274546827   1.0000000
B2   B   0.190971364339336   0.096294808894795   0.111103960259082   1.0000000
B2   B   0.190155084291285   0.238282233553593   0.111126271852114   1.0000000
B2   B   0.188591994769670   0.381319430164312   0.111102437568675   1.0000000
B2   B   0.186974394421394   0.525075314143297   0.111179602591671   1.0000000
B2   B   0.188899988790053   0.668072071399792   0.111129728171722   1.0000000
B2   B   0.189477254579070   0.810524786239962   0.111076023831683   1.0000000
B2   B   0.332510223159064   0.952952209419623   0.111095356014801   1.0000000
B2   B   0.333014417995230   0.095279548605641   0.111141958556198   1.0000000
B2   B   0.335106417992011   0.240038211732422   0.111105213202241   1.0000000
B2   B   0.331128259526641   0.381814813944592   0.110738727537380   1.0000000
B2   B   0.325610700828142   0.526530976570451   0.110848908134104   1.0000000
B2   B   0.330769072211006   0.669232818767946   0.111252308695580   1.0000000
B2   B   0.331929271022136   0.811101672876897   0.111129718621723   1.0000000
B2   B   0.475526714691391   0.953020802481072   0.111060310612032   1.0000000
B2   B   0.476005889047052   0.093215400781590   0.111103755304466   1.0000000
B2   B   0.476605470451962   0.232466135972979   0.110918851432862   1.0000000
B2   B   0.480892486061657   0.372772598594491   0.110801631854927   1.0000000
B2   B   0.473471337719608   0.674391524003896   0.110848904558099   1.0000000
B2   B   0.474925902681747   0.813027767842581   0.111179602381670   1.0000000
B2   B   0.619011581433627   0.952999092043737   0.111060122564192   1.0000000
B2   B   0.619392166981393   0.094347873570344   0.111099894726162   1.0000000
B2   B   0.620263550175291   0.235642934481082   0.111002240803819   1.0000000
B2   B   0.622647820219322   0.377354300433662   0.110716787461861   1.0000000
B2   B   0.627229133859591   0.519108317484358   0.110801639493922   1.0000000
B2   B   0.618186649835432   0.668872509822342   0.110738723250377   1.0000000
B2   B   0.618681972107654   0.811409442026297   0.111102443598674   1.0000000
B2   B   0.762093688405882   0.952593673195655   0.111082192118418   1.0000000
B2   B   0.762366146370555   0.094849736939208   0.111112561843069   1.0000000
B2   B   0.762922853069520   0.237078619269474   0.111151640006941   1.0000000
B2   B   0.764358906990911   0.379738245455712   0.111002242852819   1.0000000
B2   B   0.767536640828056   0.523396616902060   0.110918853099859   1.0000000
B2   B   0.759963767733566   0.664895072721991   0.111105220382238   1.0000000
B2   B   0.761719320921385   0.809845909656691   0.111126277479115   1.0000000
N2   N   0.951843264225873   0.904519350725048   0.111036340446449   1.0000000
N2   N   0.952494337046821   0.047506831784238   0.111090237599869   1.0000000
N2   N   0.952493452509642   0.190056699083494   0.111088946844689   1.0000000
N2   N   0.952419222426366   0.332736063859435   0.111049480166853   1.0000000
N2   N   0.952870443375433   0.475887039372967   0.111073543925438   1.0000000
N2   N   0.952286068172285   0.619305267635173   0.111131592106752   1.0000000
N2   N   0.951828760356921   0.762088898890378   0.111103337236095   1.0000000
N2   N   0.094752226803413   0.905250112445545   0.111032905068257   1.0000000
N2   N   0.095482569698928   0.048158850454137   0.111036334600445   1.0000000
N2   N   0.095114472419067   0.190434893140694   0.111079621925781   1.0000000
N2   N   0.094036435542275   0.332989058051063   0.111057102082990   1.0000000
N2   N   0.093024060331062   0.476280254120764   0.111047226141389   1.0000000
N2   N   0.094089770828943   0.619756014058707   0.111048958628671   1.0000000
N2   N   0.094445769010489   0.762643294593825   0.111067497043887   1.0000000
N2   N   0.237358781647167   0.905556437393502   0.111067498860887   1.0000000
N2   N   0.237913398062632   0.048173758978072   0.111103328481093   1.0000000
N2   N   0.239327058760701   0.191978713114915   0.111130360272916   1.0000000
N2   N   0.236392449583409   0.333172396420080   0.111069515229961   1.0000000
N2   N   0.232261918635765   0.476628059948661   0.111174085592982   1.0000000
N2   N   0.235687653490643   0.620468820035038   0.111204241227469   1.0000000
N2   N   0.236821708506389   0.763179807989655   0.111077646590777   1.0000000
N2   N   0.380245489080303   0.905912014212046   0.111048943940672   1.0000000
N2   N   0.380697070197808   0.047716374147718   0.111131601635748   1.0000000
N2   N   0.381368112224276   0.190274391329253   0.111082845316728   1.0000000
N2   N   0.384659766093395   0.336905511341778   0.110941618394164   1.0000000
N2   N   0.366216498630887   0.475556483014257   0.110096880601671   1.0000000
N2   N   0.377737455081213   0.622264832754832   0.111132540865957   1.0000000
N2   N   0.379532563665954   0.764314138473356   0.111204234836471   1.0000000
N2   N   0.523721403186214   0.906977798471912   0.111047231067390   1.0000000
N2   N   0.524114751406020   0.047130528123493   0.111073534095434   1.0000000
N2   N   0.524901217053401   0.187038198100370   0.110980020381231   1.0000000
N2   N   0.526481413668176   0.325152943610975   0.110685391435371   1.0000000
N2   N   0.524445208402756   0.633784624795128   0.110096867794671   1.0000000
N2   N   0.523373589426352   0.767740804221256   0.111174090189987   1.0000000
N2   N   0.667012383256941   0.905964701170781   0.111057115965994   1.0000000
N2   N   0.667265602034560   0.047582251947674   0.111049487160853   1.0000000
N2   N   0.667871804064653   0.189019750212648   0.111129836239093   1.0000000
N2   N   0.669446498685197   0.330555079556757   0.110852403415168   1.0000000
N2   N   0.674849829439035   0.473520350150800   0.110685398878370   1.0000000
N2   N   0.663096255555227   0.615341587569566   0.110941629659165   1.0000000
N2   N   0.666828815834929   0.763608394300559   0.111069515103960   1.0000000
N2   N   0.809566429000358   0.904886423777982   0.111079630237781   1.0000000
N2   N   0.809944509260517   0.047507526674387   0.111088949994688   1.0000000
N2   N   0.810237335705578   0.189764003310374   0.111138650133816   1.0000000
N2   N   0.810981725245335   0.332129638288364   0.111129834898092   1.0000000
N2   N   0.812964339519633   0.475100557983541   0.110980023395233   1.0000000
N2   N   0.809728018307768   0.618633987967687   0.111082840098729   1.0000000
N2   N   0.808023250643047   0.760674584137305   0.111130370078917   1.0000000
O2   O   0.542693881350177   0.457307183495814   0.110728532284577   1.0000000
S2   S   0.474252257397004   0.525748510129954   0.110057594665419   1.0000000


