data_1
_audit_creation_method   'vasp2cif'
_cell_length_a    17.52789999999977
_cell_length_b    17.52789999999977
_cell_length_c    15.0
_cell_angle_alpha    90.0
_cell_angle_beta    90.0
_cell_angle_gamma    119.99999999999916

_symmetry_space_group_name_H-M    'P 1'
loop_
_atom_site_label
_atom_site_type_symbol
_atom_site_fract_x
_atom_site_fract_y
_atom_site_fract_z
_atom_site_occupancy
B2   B   0.908238050180316   0.954233440490960   0.109160677326486   1.0000000
B2   B   0.909692201257833   0.096957808504058   0.098740605732594   1.0000000
B2   B   0.909433052175771   0.238926053963766   0.098844702219815   1.0000000
B2   B   0.908893254734664   0.381132645562211   0.102542238745301   1.0000000
B2   B   0.906992181954010   0.523457755899791   0.106914943381760   1.0000000
B2   B   0.903839653738935   0.665436870780596   0.114383208551573   1.0000000
B2   B   0.900086745585519   0.806790738038679   0.122532596530597   1.0000000
B2   B   0.048689985828723   0.952469703739503   0.114706033369160   1.0000000
B2   B   0.052432205938722   0.097326179182801   0.107517391382551   1.0000000
B2   B   0.052881116452859   0.239861591105893   0.104616313266149   1.0000000
B2   B   0.051815178608351   0.382160553272911   0.105539998708323   1.0000000
B2   B   0.049808970539793   0.524726133009061   0.107297778327876   1.0000000
B2   B   0.047983733278180   0.667055174905435   0.110021113065258   1.0000000
B2   B   0.046618117822248   0.809245815165902   0.114242046631375   1.0000000
B2   B   0.191779440099062   0.952920416945744   0.111387639282057   1.0000000
B2   B   0.195201120517538   0.097973452832463   0.111207420809905   1.0000000
B2   B   0.196759028206202   0.241093340455521   0.109990513673459   1.0000000
B2   B   0.195371224977535   0.383062258629551   0.110107915634536   1.0000000
B2   B   0.192182402814410   0.525712311947551   0.111006165095652   1.0000000
B2   B   0.191289019676312   0.668083093533610   0.110330745779692   1.0000000
B2   B   0.191049971408994   0.810155060010217   0.110031499119891   1.0000000
B2   B   0.334911504012119   0.952694190587131   0.107611485480746   1.0000000
B2   B   0.336154820492453   0.096005795670799   0.108529337765532   1.0000000
B2   B   0.342650150561219   0.244381920857393   0.110797293900077   1.0000000
B2   B   0.340832398441378   0.384611918691604   0.112219879763650   1.0000000
B2   B   0.333766662953138   0.528095633949590   0.114711745215189   1.0000000
B2   B   0.333888352231469   0.669632364908850   0.116111743975544   1.0000000
B2   B   0.335230632976753   0.810822244941875   0.111091800993307   1.0000000
B2   B   0.478430477278984   0.951894746085749   0.105195138101806   1.0000000
B2   B   0.478610983120376   0.093570195196669   0.102759623105186   1.0000000
B2   B   0.479813832180014   0.235579690725004   0.105877497427585   1.0000000
B2   B   0.495612326137710   0.389187869871883   0.111988979562867   1.0000000
B2   B   0.475639810565688   0.670269300970538   0.123795307149969   1.0000000
B2   B   0.480175151761976   0.810807382590831   0.119633213278938   1.0000000
B2   B   0.622248219842632   0.953752486077455   0.100083068020602   1.0000000
B2   B   0.622060664695276   0.094136461408134   0.096311494764350   1.0000000
B2   B   0.622423934101526   0.234421637668966   0.100419324793059   1.0000000
B2   B   0.623798161118629   0.373545321416948   0.103965562738765   1.0000000
B2   B   0.605831818926426   0.494931885161840   0.112738279020633   1.0000000
B2   B   0.629743888938421   0.822380145238192   0.147002248802359   1.0000000
B2   B   0.766323399101132   0.955459318972892   0.102901269908706   1.0000000
B2   B   0.765932885384046   0.096049215157095   0.093286163613079   1.0000000
B2   B   0.766024526400443   0.237429690391728   0.097227629384371   1.0000000
B2   B   0.766276418491927   0.379142470009022   0.102148077968451   1.0000000
B2   B   0.763291340602585   0.520398529615775   0.107609223053096   1.0000000
B2   B   0.756794230455327   0.659620553683915   0.122626569899566   1.0000000
B2   B   0.763806121208511   0.819688307400305   0.148165961076060   1.0000000
S2   S   0.612543024912604   0.652693462487818   0.146802510778315   1.0000000
N2   N   0.952494672668493   0.903592574281035   0.117686940308111   1.0000000
N2   N   0.957397618497247   0.049673262068886   0.103436740671256   1.0000000
N2   N   0.957733170503651   0.192193906535600   0.099981107397156   1.0000000
N2   N   0.956873324361375   0.334127195187193   0.102201930789263   1.0000000
N2   N   0.955028633957149   0.476406623104935   0.105439344017796   1.0000000
N2   N   0.952588176504811   0.618746719689206   0.110237916628336   1.0000000
N2   N   0.950030852108810   0.760628575976639   0.117519111711033   1.0000000
N2   N   0.096025455590130   0.904746437572832   0.114214943806694   1.0000000
N2   N   0.099065190702177   0.049003100763898   0.111619326678216   1.0000000
N2   N   0.101197876724207   0.192962768870828   0.107316573078961   1.0000000
N2   N   0.100295843650372   0.335168310648164   0.106710232541147   1.0000000
N2   N   0.097678864503386   0.477403058689674   0.107733982005748   1.0000000
N2   N   0.096182321245351   0.619944418936051   0.108771946190736   1.0000000
N2   N   0.095173142115584   0.762242751037206   0.111184822705930   1.0000000
N2   N   0.239333996040315   0.905316960053504   0.109525383080644   1.0000000
N2   N   0.240904806181831   0.048635183125789   0.110746903083935   1.0000000
N2   N   0.245649695227094   0.194852819594189   0.110908673935931   1.0000000
N2   N   0.245036537441685   0.336739444765456   0.111058049562992   1.0000000
N2   N   0.240017380389205   0.478344480523468   0.112519885193606   1.0000000
N2   N   0.239042663407062   0.620875013178249   0.112335011278766   1.0000000
N2   N   0.239386487762360   0.763105107860241   0.110036025291649   1.0000000
N2   N   0.382893944386062   0.905490088267108   0.107974695204362   1.0000000
N2   N   0.383231643714531   0.047759657236867   0.106163152628397   1.0000000
N2   N   0.385238738828733   0.191692782352710   0.108703330392991   1.0000000
N2   N   0.395427732239881   0.343168021712280   0.112346933455498   1.0000000
N2   N   0.381095201440893   0.480445049585754   0.112372121719119   1.0000000
N2   N   0.381191793949220   0.622654824474104   0.118073839327330   1.0000000
N2   N   0.383737220816613   0.764111254227529   0.115980920168006   1.0000000
N2   N   0.526733139024998   0.905269888234308   0.108469955657135   1.0000000
N2   N   0.526524962326626   0.046646441386365   0.100190286434206   1.0000000
N2   N   0.527172631502843   0.188120355425568   0.102497157391902   1.0000000
N2   N   0.529288552699541   0.329571555810162   0.106695698237971   1.0000000
N2   N   0.468905782939338   0.521335779535242   0.105417606087279   1.0000000
N2   N   0.510759505476059   0.610820762505426   0.113657994859892   1.0000000
N2   N   0.529472459207597   0.764669313187994   0.134417510583660   1.0000000
N2   N   0.670757563626601   0.908923338294407   0.105142813017089   1.0000000
N2   N   0.670372944328818   0.048291615798618   0.092861287593571   1.0000000
N2   N   0.670635253715332   0.188708736456825   0.097143236522413   1.0000000
N2   N   0.671569540046811   0.328701916524082   0.101774038564692   1.0000000
N2   N   0.668934489682350   0.467499103356253   0.104891903292412   1.0000000
N2   N   0.654920542308410   0.593612744967572   0.118276721510284   1.0000000
N2   N   0.687097039648449   0.803255597915786   0.191229253634667   1.0000000
N2   N   0.814411460010810   0.908625721202299   0.110668917542846   1.0000000
N2   N   0.814541761021424   0.049903940965940   0.094399786885731   1.0000000
N2   N   0.814213176150432   0.191073829380294   0.095156488098233   1.0000000
N2   N   0.814037419429638   0.332590644961606   0.100373071047009   1.0000000
N2   N   0.812207383722900   0.474526909885853   0.105134082486067   1.0000000
N2   N   0.807680388992516   0.615903798751212   0.114285403510891   1.0000000
N2   N   0.801609608402380   0.757336476528252   0.132933098220775   1.0000000


