data_1
_audit_creation_method   'vasp2cif'
_cell_length_a    17.52789999999977
_cell_length_b    17.52789999999977
_cell_length_c    15.0
_cell_angle_alpha    90.0
_cell_angle_beta    90.0
_cell_angle_gamma    119.99999999999916

_symmetry_space_group_name_H-M    'P 1'
loop_
_atom_site_label
_atom_site_type_symbol
_atom_site_fract_x
_atom_site_fract_y
_atom_site_fract_z
_atom_site_occupancy
B2   B   0.905579936899797   0.953422102764691   0.121566000811087   1.0000000
B2   B   0.904382552144348   0.095803164686734   0.119654455977068   1.0000000
B2   B   0.903893794952117   0.238570169703503   0.117752838339744   1.0000000
B2   B   0.903792529753274   0.381338341830809   0.116561267439242   1.0000000
B2   B   0.904590876164633   0.524132660828563   0.116141424423786   1.0000000
B2   B   0.906063880880807   0.667276382173692   0.117381289567792   1.0000000
B2   B   0.906797234600562   0.811028533826308   0.121446766396255   1.0000000
B2   B   0.048028764212648   0.952140149878233   0.121561004965619   1.0000000
B2   B   0.046762421612888   0.094591716776587   0.121792213269717   1.0000000
B2   B   0.046378926676826   0.237721713605111   0.118929703434456   1.0000000
B2   B   0.046702169104447   0.380738473303790   0.115590531769719   1.0000000
B2   B   0.047663798813140   0.523530427147495   0.114442839615563   1.0000000
B2   B   0.048603016586519   0.666379137245096   0.115691772603892   1.0000000
B2   B   0.048648335355856   0.809361589673852   0.118823595278684   1.0000000
B2   B   0.190803114729030   0.951505036497649   0.119074485271894   1.0000000
B2   B   0.189142126517874   0.093360939047214   0.121605087818081   1.0000000
B2   B   0.187760401208728   0.235698865078530   0.118295715757721   1.0000000
B2   B   0.188858195504844   0.379723015823834   0.111265119661387   1.0000000
B2   B   0.190656338330749   0.522761199695044   0.108665093670155   1.0000000
B2   B   0.191742149539309   0.665768908541215   0.110575436707114   1.0000000
B2   B   0.191421285448907   0.808750534626055   0.114666235990625   1.0000000
B2   B   0.333793969183186   0.951564088149925   0.115990325214640   1.0000000
B2   B   0.332880357298843   0.094082102148648   0.117406334524679   1.0000000
B2   B   0.329224214319391   0.233881416435588   0.110268789232191   1.0000000
B2   B   0.327231618365869   0.376301340163611   0.094746907656348   1.0000000
B2   B   0.333561257795792   0.520193102827497   0.093043964083872   1.0000000
B2   B   0.335343671531858   0.664794903170553   0.102938284326984   1.0000000
B2   B   0.334395646723979   0.808423085339828   0.110702870974772   1.0000000
B2   B   0.476638805972314   0.952514765662358   0.114502250694392   1.0000000
B2   B   0.476035274342682   0.095579075753056   0.116130171425170   1.0000000
B2   B   0.474846147284718   0.238172975136974   0.107763473007849   1.0000000
B2   B   0.464978976446030   0.370442220961156   0.073279390607028   1.0000000
B2   B   0.479914948488516   0.666572471726023   0.093806154204555   1.0000000
B2   B   0.477391810165073   0.809529731860663   0.108774253783918   1.0000000
B2   B   0.619433283197146   0.953487057522811   0.115412872901071   1.0000000
B2   B   0.618841482313305   0.096383395654678   0.116433350751957   1.0000000
B2   B   0.618168646911577   0.239680517436675   0.112657826831159   1.0000000
B2   B   0.616946176980537   0.383157746962732   0.097962704002368   1.0000000
B2   B   0.629571014107859   0.535154491800959   0.074646207956486   1.0000000
B2   B   0.623701170488064   0.672791950083002   0.096484125525749   1.0000000
B2   B   0.620418974659485   0.811313267122129   0.111652584472900   1.0000000
B2   B   0.762444343235822   0.953806935141765   0.118717965402786   1.0000000
B2   B   0.761620482533204   0.096297528954096   0.117597645373404   1.0000000
B2   B   0.761055426000390   0.239113385520370   0.116400853139417   1.0000000
B2   B   0.760477805248163   0.381994402486940   0.112796942876465   1.0000000
B2   B   0.761952053572623   0.525284147495178   0.108318832641424   1.0000000
B2   B   0.766198742541913   0.670871634157954   0.111283153422414   1.0000000
B2   B   0.764461477820717   0.812415416340458   0.118615517518940   1.0000000
N2   N   0.953498551118647   0.905820321161532   0.122079330360156   1.0000000
N2   N   0.952069174217404   0.048112138246276   0.121100040776815   1.0000000
N2   N   0.951280378232532   0.190714165229563   0.118942370889735   1.0000000
N2   N   0.951280402169449   0.333586642663935   0.117013149752316   1.0000000
N2   N   0.952130384252167   0.476425797282412   0.116305704932981   1.0000000
N2   N   0.953383238388502   0.619326615099362   0.117037262916257   1.0000000
N2   N   0.953865816865805   0.762571861887793   0.119988799971846   1.0000000
N2   N   0.095768864725810   0.904390818597102   0.120004553386664   1.0000000
N2   N   0.094354400133447   0.046665206847077   0.122376185641091   1.0000000
N2   N   0.092972067423140   0.189047873525467   0.121094408954881   1.0000000
N2   N   0.093436926490345   0.332578739229463   0.116325780057399   1.0000000
N2   N   0.094841022954859   0.475799512214941   0.113301031463024   1.0000000
N2   N   0.096083076955075   0.618730607650645   0.113472260812251   1.0000000
N2   N   0.096215718531121   0.761596431547704   0.116185853009899   1.0000000
N2   N   0.238572970320289   0.903944582302499   0.116480426723987   1.0000000
N2   N   0.237595569377617   0.046288974512661   0.120287299303184   1.0000000
N2   N   0.234900770621750   0.187320878202106   0.120129118747141   1.0000000
N2   N   0.233424533896526   0.329393912309859   0.111725738110235   1.0000000
N2   N   0.236871152588251   0.474683967637564   0.105436216949598   1.0000000
N2   N   0.239142584258350   0.618209724539512   0.106936662210106   1.0000000
N2   N   0.238989012270643   0.761173879303883   0.111413307020683   1.0000000
N2   N   0.381437811353071   0.904080284404552   0.113704371838206   1.0000000
N2   N   0.380849434877987   0.046779847673645   0.117253266389705   1.0000000
N2   N   0.379409671849718   0.188554747206583   0.112798825674352   1.0000000
N2   N   0.373037248474850   0.325309359908872   0.093229826758399   1.0000000
N2   N   0.371594334352626   0.466945325624706   0.081732812106052   1.0000000
N2   N   0.382715015789733   0.617400355695912   0.094818625867884   1.0000000
N2   N   0.381941016739485   0.761008638860653   0.107045094311612   1.0000000
N2   N   0.524365988407820   0.905347192780987   0.113236342644528   1.0000000
N2   N   0.523750064248616   0.048048239197522   0.116293611318613   1.0000000
N2   N   0.523020547327677   0.190904013739144   0.113642710300940   1.0000000
N2   N   0.520926221670204   0.332771361406812   0.094009684212354   1.0000000
N2   N   0.533072880618043   0.628342266732138   0.083644710958226   1.0000000
N2   N   0.525449447689359   0.763299398859239   0.105802252890171   1.0000000
N2   N   0.667589322801691   0.906753966639419   0.116190206492268   1.0000000
N2   N   0.666598468174983   0.048907560597986   0.116786382969734   1.0000000
N2   N   0.665944487440993   0.191774555512010   0.115913526886925   1.0000000
N2   N   0.665071207276280   0.335084202597326   0.108586739964789   1.0000000
N2   N   0.667322025497199   0.479192327932682   0.094715496489090   1.0000000
N2   N   0.674614412375028   0.626928363878582   0.095203409506842   1.0000000
N2   N   0.670727275051013   0.766731234803341   0.112629134284299   1.0000000
N2   N   0.811124322191296   0.907218253490215   0.120842622794314   1.0000000
N2   N   0.809467570844423   0.048902929922098   0.118740791587694   1.0000000
N2   N   0.808761235495451   0.191425430361224   0.117432769262982   1.0000000
N2   N   0.808397039095224   0.334231736563311   0.116015012871327   1.0000000
N2   N   0.809253869885131   0.477142669033698   0.113884229813165   1.0000000
N2   N   0.811564526036970   0.620716623276953   0.113366651990377   1.0000000
N2   N   0.812830383444384   0.765261829383049   0.120463303809906   1.0000000
As2   As   0.504540001059607   0.495850335851961   0.039810971087142   1.0000000


