data_1
_audit_creation_method   'vasp2cif'
_cell_length_a    17.52789999999977
_cell_length_b    17.52789999999977
_cell_length_c    15.0
_cell_angle_alpha    90.0
_cell_angle_beta    90.0
_cell_angle_gamma    119.99999999999916

_symmetry_space_group_name_H-M    'P 1'
loop_
_atom_site_label
_atom_site_type_symbol
_atom_site_fract_x
_atom_site_fract_y
_atom_site_fract_z
_atom_site_occupancy
B2   B   0.905155985890565   0.952737511318918   0.111023217730959   1.0000000
B2   B   0.904703749389369   0.095248596485046   0.111060869618973   1.0000000
B2   B   0.904653518842867   0.238048066385250   0.111067701140559   1.0000000
B2   B   0.904697424730533   0.380888325068850   0.111011559389000   1.0000000
B2   B   0.905154871406827   0.523845286426926   0.111010153861251   1.0000000
B2   B   0.906022588908300   0.667078916736487   0.111089019959729   1.0000000
B2   B   0.906019793788206   0.810383228547689   0.111061886429665   1.0000000
B2   B   0.047913472153152   0.952576431426983   0.111022430232545   1.0000000
B2   B   0.047639188063585   0.095329842790608   0.111022006058959   1.0000000
B2   B   0.047489101104571   0.238066240319259   0.111006653566561   1.0000000
B2   B   0.047474965037198   0.380841947856035   0.111028155876590   1.0000000
B2   B   0.047641264956155   0.523738103942111   0.111022191463858   1.0000000
B2   B   0.047930845772583   0.666785142135603   0.111041235184960   1.0000000
B2   B   0.048134881103786   0.809793726529064   0.111025324886373   1.0000000
B2   B   0.190510329501207   0.952297835282548   0.111015124334789   1.0000000
B2   B   0.190008130852515   0.094685204521979   0.111080639423106   1.0000000
B2   B   0.190289232638173   0.238001078066812   0.111019052154857   1.0000000
B2   B   0.190291017128254   0.380845597111347   0.111030276831681   1.0000000
B2   B   0.190282782099621   0.523701299040353   0.111098977364169   1.0000000
B2   B   0.190013674415378   0.666751645690265   0.111086806652012   1.0000000
B2   B   0.190516583895263   0.809635845514725   0.111011019061470   1.0000000
B2   B   0.333276801628163   0.952343137459752   0.111029220592177   1.0000000
B2   B   0.333082157934017   0.094722597310696   0.111091689375637   1.0000000
B2   B   0.331904865425349   0.236295933786236   0.111080630646710   1.0000000
B2   B   0.333255817393915   0.380428392809335   0.111059064267601   1.0000000
B2   B   0.333258679629405   0.524224512626436   0.111082302002843   1.0000000
B2   B   0.331898581600741   0.667021125455125   0.111101880706609   1.0000000
B2   B   0.333089344728834   0.809782949291748   0.111072472030616   1.0000000
B2   B   0.476141563600819   0.952547439098479   0.111018824927417   1.0000000
B2   B   0.476146840507912   0.095021391754687   0.111017104201595   1.0000000
B2   B   0.475879235030719   0.237272513446599   0.111060242870743   1.0000000
B2   B   0.473371816011582   0.377455518960816   0.110952500615715   1.0000000
B2   B   0.473374323880270   0.667352589322032   0.110915952302425   1.0000000
B2   B   0.475885863377442   0.810038002789511   0.111052545181159   1.0000000
B2   B   0.618964322372529   0.952261695717084   0.111032073705299   1.0000000
B2   B   0.619041060248174   0.095243534200252   0.111011074599706   1.0000000
B2   B   0.618969719332791   0.238149560296343   0.111024016081632   1.0000000
B2   B   0.618773916293001   0.381229324097284   0.111005232890305   1.0000000
B2   B   0.622308695905642   0.526872951374264   0.110891757430426   1.0000000
B2   B   0.622310351405242   0.666864995247638   0.110891318944519   1.0000000
B2   B   0.618781700699424   0.808975635852593   0.110986972639952   1.0000000
B2   B   0.761896217124810   0.952293878693797   0.111025150665239   1.0000000
B2   B   0.761842849626555   0.095193649109760   0.111071936408272   1.0000000
B2   B   0.761843229982777   0.238100071027733   0.111072036855545   1.0000000
B2   B   0.761891207149537   0.381027236140263   0.111022515004538   1.0000000
B2   B   0.762856782681672   0.524199472455037   0.111048835665150   1.0000000
B2   B   0.765196357515854   0.668316683562697   0.111039807716845   1.0000000
B2   B   0.762857943451518   0.810097432211039   0.111032650418171   1.0000000
C2   C   0.474189307680697   0.522808498254955   0.110917836630957   1.0000000
C2   C   0.521061213274854   0.477468970134658   0.110785512246254   1.0000000
C2   C   0.521062190539923   0.615037053024245   0.110706679247793   1.0000000
N2   N   0.953016735183243   0.905357875956335   0.111010115934872   1.0000000
N2   N   0.952520376125996   0.047873789800362   0.111014982787701   1.0000000
N2   N   0.952288783381481   0.190472628334589   0.111041462915186   1.0000000
N2   N   0.952281433137445   0.333250635516136   0.111017267625917   1.0000000
N2   N   0.952519920471885   0.476078319907196   0.110967154678041   1.0000000
N2   N   0.953023822057684   0.619096831368243   0.111029015831104   1.0000000
N2   N   0.953220704052051   0.762332352789630   0.111058827361225   1.0000000
N2   N   0.095483771069410   0.904924319364320   0.110984256066823   1.0000000
N2   N   0.095107417484818   0.047579425788698   0.111029153303321   1.0000000
N2   N   0.095179644096564   0.190563782663156   0.110979060654339   1.0000000
N2   N   0.095134258755162   0.333279370632535   0.110988146779173   1.0000000
N2   N   0.095173401661361   0.476037289302851   0.111031928505317   1.0000000
N2   N   0.095111538831526   0.618961772377707   0.111034941164281   1.0000000
N2   N   0.095487631949857   0.762003779984772   0.111000041351887   1.0000000
N2   N   0.238125148048933   0.904773001253001   0.110986356679815   1.0000000
N2   N   0.237923200954770   0.047377647330333   0.111059733735577   1.0000000
N2   N   0.237175569015641   0.189641649277022   0.111050110991522   1.0000000
N2   N   0.238092416832812   0.333459781357049   0.111018559800624   1.0000000
N2   N   0.238090876327154   0.476040357695509   0.111071925828589   1.0000000
N2   N   0.237169921619303   0.618950635286355   0.111098889183177   1.0000000
N2   N   0.237927954529735   0.761970423705741   0.111039794707388   1.0000000
N2   N   0.380898663507451   0.904890663357530   0.111022474877219   1.0000000
N2   N   0.380899482745607   0.047427483144529   0.111033545911461   1.0000000
N2   N   0.380487609949098   0.189747427466272   0.111076196910576   1.0000000
N2   N   0.378948880720739   0.331076650249471   0.111037170244735   1.0000000
N2   N   0.381393108720906   0.476398929289512   0.111033346910827   1.0000000
N2   N   0.378946418481642   0.619283523753036   0.111036415995275   1.0000000
N2   N   0.380489555070837   0.762158887962457   0.111072431413367   1.0000000
N2   N   0.523722690581989   0.905078617462366   0.111023579539684   1.0000000
N2   N   0.523835111957663   0.047632087738756   0.110971298215447   1.0000000
N2   N   0.523725031170557   0.190076833182199   0.111019120907759   1.0000000
N2   N   0.523091682982289   0.332174550168603   0.110998749349432   1.0000000
N2   N   0.523096658816107   0.762350597871164   0.110972171405623   1.0000000
N2   N   0.666489855430191   0.904382689860094   0.111002169362970   1.0000000
N2   N   0.666626893218198   0.047547406953058   0.111020840691199   1.0000000
N2   N   0.666628652600330   0.190526146177100   0.111025586795172   1.0000000
N2   N   0.666488549730367   0.333542994353180   0.111002774714352   1.0000000
N2   N   0.667562121797497   0.476944127526850   0.110984899854141   1.0000000
N2   N   0.671222349104330   0.621326424002283   0.110943345317076   1.0000000
N2   N   0.667564964308732   0.762050070165377   0.110977287844797   1.0000000
N2   N   0.810008842788040   0.905195296523706   0.111007278602375   1.0000000
N2   N   0.809448836354661   0.047568138981805   0.111044105591682   1.0000000
N2   N   0.809442261598714   0.190445592989293   0.111066249439597   1.0000000
N2   N   0.809448392707088   0.333320442902567   0.111026581321769   1.0000000
N2   N   0.810004226600284   0.476246225128876   0.111012658621181   1.0000000
N2   N   0.811302435422885   0.619531797486744   0.111062651189422   1.0000000
N2   N   0.811299706632645   0.763207975198718   0.111041204985033   1.0000000


