data_1
_audit_creation_method   'vasp2cif'
_cell_length_a    17.52789999999977
_cell_length_b    17.52789999999977
_cell_length_c    15.0
_cell_angle_alpha    90.0
_cell_angle_beta    90.0
_cell_angle_gamma    119.99999999999916

_symmetry_space_group_name_H-M    'P 1'
loop_
_atom_site_label
_atom_site_type_symbol
_atom_site_fract_x
_atom_site_fract_y
_atom_site_fract_z
_atom_site_occupancy
B2   B   0.904904531365593   0.952406606403678   0.111001860386475   1.0000000
B2   B   0.904764892075619   0.095216638553036   0.111045974193655   1.0000000
B2   B   0.904784708220297   0.238162821558535   0.111053538748009   1.0000000
B2   B   0.904590466446786   0.380966834620656   0.110994797568751   1.0000000
B2   B   0.904053819535971   0.523714919552751   0.111010541617460   1.0000000
B2   B   0.905043569833121   0.666615713583249   0.111083350311104   1.0000000
B2   B   0.904674359035525   0.809236199455960   0.111035131434919   1.0000000
B2   B   0.047439425514327   0.952138328922372   0.110999644390548   1.0000000
B2   B   0.047461200335482   0.094969329288298   0.110995998309109   1.0000000
B2   B   0.047801249440809   0.238153620291963   0.110991136961356   1.0000000
B2   B   0.047704094960159   0.381053976630304   0.111008317803947   1.0000000
B2   B   0.047080398011403   0.523797989936090   0.111007464117649   1.0000000
B2   B   0.047281277329106   0.666641603912237   0.111027302908087   1.0000000
B2   B   0.047512348033246   0.809494621845770   0.110990059954400   1.0000000
B2   B   0.190296632135464   0.952212886312529   0.110995212981071   1.0000000
B2   B   0.190273556322072   0.094757580087831   0.111046307333622   1.0000000
B2   B   0.190084756407185   0.237316793039224   0.111008309297772   1.0000000
B2   B   0.191182871115682   0.381241100039432   0.111001560479975   1.0000000
B2   B   0.190066453801180   0.524139426643927   0.111055931197090   1.0000000
B2   B   0.189651966986089   0.666945633598543   0.111059986891525   1.0000000
B2   B   0.190174419801524   0.809648876195570   0.110998555111786   1.0000000
B2   B   0.333242047962205   0.952516572648344   0.111020742900081   1.0000000
B2   B   0.333269656947666   0.094730083836407   0.111100479487995   1.0000000
B2   B   0.333335333968391   0.236671428096096   0.111086562339915   1.0000000
B2   B   0.332925798978756   0.377457828196633   0.111035291474930   1.0000000
B2   B   0.333684034933667   0.526896296545088   0.111044614852323   1.0000000
B2   B   0.331900685812242   0.668156595027332   0.111088974000776   1.0000000
B2   B   0.333022441268764   0.810263978928747   0.111056244556908   1.0000000
B2   B   0.476232920469280   0.952727627593300   0.111000053894324   1.0000000
B2   B   0.476325338409217   0.095437681073476   0.111004817266292   1.0000000
B2   B   0.476311851462723   0.238146423640045   0.111073491232917   1.0000000
B2   B   0.476634879919395   0.381130294913342   0.111010911535306   1.0000000
B2   B   0.473559423229972   0.666597531088401   0.111044680954534   1.0000000
B2   B   0.475977988448552   0.809971253533134   0.111053867300965   1.0000000
B2   B   0.619039041925268   0.952238133153040   0.111010637441280   1.0000000
B2   B   0.619142377578947   0.095481273377050   0.110993485453515   1.0000000
B2   B   0.619147600224611   0.238698969228220   0.111002078144195   1.0000000
B2   B   0.618855535163825   0.381830837439768   0.110988833516015   1.0000000
B2   B   0.622486986547748   0.666650267141510   0.111009765723500   1.0000000
B2   B   0.618815653470132   0.808574681204960   0.111002620927079   1.0000000
B2   B   0.761864824969021   0.952159337595809   0.110994082930425   1.0000000
B2   B   0.761905950339675   0.095258876873112   0.111053644290833   1.0000000
B2   B   0.761889433559896   0.238257487751209   0.111052132609765   1.0000000
B2   B   0.761691605093602   0.381074536212160   0.111002420807358   1.0000000
B2   B   0.761059857818455   0.524028537637850   0.111029540855310   1.0000000
B2   B   0.762644616547181   0.665951507183072   0.111044969872805   1.0000000
B2   B   0.762713724559826   0.809820237331703   0.111000413836304   1.0000000
C2   C   0.385987635786928   0.477456344326585   0.110974953196282   1.0000000
C2   C   0.479003567367200   0.523463848261965   0.110971115151833   1.0000000
C2   C   0.522937827253623   0.615115878485023   0.110939216497865   1.0000000
C2   C   0.619176028230266   0.524388147502751   0.111358960590787   1.0000000
N2   N   0.952246858641320   0.904528140296308   0.110998356951091   1.0000000
N2   N   0.952358652786583   0.047567915649275   0.111002785849122   1.0000000
N2   N   0.952476180545031   0.190562031418626   0.111026565786357   1.0000000
N2   N   0.952386375463129   0.333410928991388   0.111000687211018   1.0000000
N2   N   0.951762096597695   0.476125534085297   0.110965685079054   1.0000000
N2   N   0.952215562294197   0.618860493922874   0.111028684004074   1.0000000
N2   N   0.952420632699241   0.761827442686797   0.111031937978361   1.0000000
N2   N   0.095123533197578   0.904667992640484   0.110958924388416   1.0000000
N2   N   0.095082660873157   0.047348237846364   0.110998811695815   1.0000000
N2   N   0.095014511048297   0.190090661120263   0.110968024610460   1.0000000
N2   N   0.095737220319078   0.333592836794607   0.110975901172139   1.0000000
N2   N   0.094830461711184   0.476250816200915   0.111009079122367   1.0000000
N2   N   0.094597900814028   0.619009468403566   0.111015259542250   1.0000000
N2   N   0.094991470498720   0.761880937490970   0.110973787327760   1.0000000
N2   N   0.237984484600732   0.904833472118522   0.110974185949117   1.0000000
N2   N   0.238029649995895   0.047364462694839   0.111044604216605   1.0000000
N2   N   0.238094861885638   0.189955912880920   0.111030914370226   1.0000000
N2   N   0.237934740658750   0.332274871517912   0.110999084012004   1.0000000
N2   N   0.238354744153675   0.476931938606945   0.111029495744293   1.0000000
N2   N   0.236924909298959   0.619423864572453   0.111058372448818   1.0000000
N2   N   0.237707592811390   0.762217698033621   0.111034378694921   1.0000000
N2   N   0.380960211135917   0.905301317445199   0.111006422473023   1.0000000
N2   N   0.381069567380329   0.047599935776638   0.111034085169911   1.0000000
N2   N   0.381083937242580   0.189737712299512   0.111085158058767   1.0000000
N2   N   0.381395516204822   0.331717903635098   0.111040588605136   1.0000000
N2   N   0.378914826562144   0.621171770062100   0.111075359919222   1.0000000
N2   N   0.380598759723997   0.763092810294691   0.111052606649410   1.0000000
N2   N   0.523842912695479   0.905146807547498   0.111004425216362   1.0000000
N2   N   0.523961771543057   0.047947804653034   0.110956312771046   1.0000000
N2   N   0.523987328390190   0.190751285693763   0.111007554959370   1.0000000
N2   N   0.523887879314394   0.333516547651356   0.111030252828016   1.0000000
N2   N   0.525666023755665   0.477389776800674   0.110979943971413   1.0000000
N2   N   0.523232765021157   0.761922967640092   0.111028213423382   1.0000000
N2   N   0.666485315324740   0.904132213184638   0.110978232652721   1.0000000
N2   N   0.666682156512834   0.047648405674203   0.111005169825226   1.0000000
N2   N   0.666686654057917   0.190889663592853   0.111004664800361   1.0000000
N2   N   0.666613160032467   0.334247640283370   0.110979098010632   1.0000000
N2   N   0.665002918091340   0.477458423564943   0.110986824727612   1.0000000
N2   N   0.667895593187521   0.617186826526460   0.110999231934677   1.0000000
N2   N   0.667896141376427   0.761630947150556   0.110986515604893   1.0000000
N2   N   0.809863724877708   0.904914337621789   0.110969719501419   1.0000000
N2   N   0.809455583389164   0.047525288170810   0.111025347071465   1.0000000
N2   N   0.809504729950541   0.190564530770403   0.111050189360214   1.0000000
N2   N   0.809349175595586   0.333456861262352   0.111006348654476   1.0000000
N2   N   0.808448743606601   0.476106792047557   0.110993599798384   1.0000000
N2   N   0.810260621927953   0.618916514908661   0.111074098180529   1.0000000
N2   N   0.809451083544543   0.761399127763710   0.111013924037301   1.0000000


