data_1
_audit_creation_method   'vasp2cif'
_cell_length_a    17.52789999999977
_cell_length_b    17.52789999999977
_cell_length_c    15.0
_cell_angle_alpha    90.0
_cell_angle_beta    90.0
_cell_angle_gamma    119.99999999999916

_symmetry_space_group_name_H-M    'P 1'
loop_
_atom_site_label
_atom_site_type_symbol
_atom_site_fract_x
_atom_site_fract_y
_atom_site_fract_z
_atom_site_occupancy
S2   S   0.392690166835919   0.484608473026522   0.110786838883337   1.0000000
B2   B   0.906928909530741   0.952013560046045   0.110765509871888   1.0000000
B2   B   0.908286518395855   0.095468145940064   0.110808873150536   1.0000000
B2   B   0.908571279677627   0.238291621080533   0.110750803589952   1.0000000
B2   B   0.908094895601379   0.381013930481243   0.110692863413439   1.0000000
B2   B   0.905997770664846   0.523487276496895   0.110760965948363   1.0000000
B2   B   0.903963412443391   0.665441173314899   0.110751614965897   1.0000000
B2   B   0.903601808995543   0.807127720214060   0.110679625699327   1.0000000
B2   B   0.049025805971535   0.952067854809530   0.110695806767427   1.0000000
B2   B   0.050713089723646   0.095303415559327   0.110770483922617   1.0000000
B2   B   0.051509793895186   0.238618463109961   0.110804446986603   1.0000000
B2   B   0.050753882006208   0.381616125054172   0.110714156568441   1.0000000
B2   B   0.048507938677148   0.524618214375360   0.110698625784883   1.0000000
B2   B   0.047749251195982   0.666995690587687   0.110746809631405   1.0000000
B2   B   0.047776207248980   0.809223869409388   0.110708410123982   1.0000000
B2   B   0.191907672565052   0.952655941871450   0.110698635483310   1.0000000
B2   B   0.194295517044047   0.096339627133085   0.110701404065473   1.0000000
B2   B   0.194166209435833   0.237867250124696   0.110741741502463   1.0000000
B2   B   0.194244068422341   0.382120710925527   0.110737684626105   1.0000000
B2   B   0.190040085576615   0.525987630357912   0.110681720950086   1.0000000
B2   B   0.190696514576763   0.668447754709395   0.110737263044925   1.0000000
B2   B   0.191087066237873   0.810405201040304   0.110714258091164   1.0000000
B2   B   0.335045949415434   0.953132966008417   0.110737465585451   1.0000000
B2   B   0.336149381661626   0.094813962472492   0.110735305676262   1.0000000
B2   B   0.341181139312987   0.239299396042674   0.110742632458383   1.0000000
B2   B   0.336823712861758   0.371274664715236   0.110692545909801   1.0000000
B2   B   0.329624570760448   0.534394021567888   0.110812892146937   1.0000000
B2   B   0.333756066314048   0.672302333904666   0.110795882968824   1.0000000
B2   B   0.334463136373073   0.812184695534034   0.110814159771318   1.0000000
B2   B   0.478610332268358   0.953496564207885   0.110790241830881   1.0000000
B2   B   0.479193642374724   0.094739618595946   0.110798103269233   1.0000000
B2   B   0.480540646654777   0.236473013901888   0.110733250561866   1.0000000
B2   B   0.495485842720152   0.389008738078029   0.110717462371647   1.0000000
B2   B   0.478257127363276   0.672196017389626   0.110741987197480   1.0000000
B2   B   0.478415844457097   0.812602738634361   0.110800373376002   1.0000000
B2   B   0.622189607623895   0.953249386688383   0.110752888392241   1.0000000
B2   B   0.622469439111091   0.094979852519149   0.110734293960012   1.0000000
B2   B   0.622985174356851   0.236562728840104   0.110739854966430   1.0000000
B2   B   0.624381222755246   0.377947244312085   0.110736475774933   1.0000000
B2   B   0.606772833196007   0.506363693195022   0.110714952377399   1.0000000
B2   B   0.621020910568489   0.667294097767941   0.110618367282387   1.0000000
B2   B   0.621915626256282   0.810983098561849   0.110700323447493   1.0000000
B2   B   0.764984178200026   0.952683039672954   0.110771333320292   1.0000000
B2   B   0.765559250894544   0.095375404533311   0.110744961508224   1.0000000
B2   B   0.765815290398377   0.237735014259396   0.110699039187079   1.0000000
B2   B   0.765900595559803   0.380147685163388   0.110735700159415   1.0000000
B2   B   0.762461291323625   0.521837201447748   0.110741158993097   1.0000000
B2   B   0.756535215321191   0.660335652207829   0.110666996291682   1.0000000
B2   B   0.763407375937682   0.808924249314725   0.110658269467369   1.0000000
N2   N   0.953285416149652   0.903444594966361   0.110693422480263   1.0000000
N2   N   0.955509422399364   0.047609742595387   0.110783596707818   1.0000000
N2   N   0.956378964717979   0.190911589028754   0.110790561129749   1.0000000
N2   N   0.955958679789214   0.333567583402211   0.110695068012019   1.0000000
N2   N   0.954007887698562   0.476217623833932   0.110704187531649   1.0000000
N2   N   0.952622026472039   0.618691258372423   0.110757355667890   1.0000000
N2   N   0.952261361653040   0.760771345997711   0.110699656292246   1.0000000
N2   N   0.096474519988481   0.904636889736494   0.110673866003663   1.0000000
N2   N   0.098393243779285   0.048036177638946   0.110697490425632   1.0000000
N2   N   0.099058099188747   0.190819472982020   0.110770252131743   1.0000000
N2   N   0.099198251387389   0.334230458377925   0.110747677095473   1.0000000
N2   N   0.096049196486795   0.477010270091409   0.110662397786911   1.0000000
N2   N   0.095706553583917   0.619832214575831   0.110706839359415   1.0000000
N2   N   0.095749219782102   0.762197253969180   0.110705980890589   1.0000000
N2   N   0.239581283651148   0.905469112222188   0.110683432468184   1.0000000
N2   N   0.240809733180362   0.047970055325297   0.110681872206268   1.0000000
N2   N   0.244121093308251   0.192440729013216   0.110711546523195   1.0000000
N2   N   0.242139298332438   0.333360587586593   0.110695976594099   1.0000000
N2   N   0.237325553184526   0.478107368891325   0.110685536990608   1.0000000
N2   N   0.238427653646437   0.621395025246820   0.110710519788219   1.0000000
N2   N   0.238999617742406   0.763511706142358   0.110748555511193   1.0000000
N2   N   0.383078387206698   0.906592441995945   0.110772318617648   1.0000000
N2   N   0.383716323017724   0.047759118065894   0.110743330774414   1.0000000
N2   N   0.385432091723964   0.189615878071092   0.110726899518190   1.0000000
N2   N   0.393793640838370   0.335797239853863   0.110711819029564   1.0000000
N2   N   0.381866096249278   0.626886202722515   0.110805823554195   1.0000000
N2   N   0.382709010242706   0.766181684459462   0.110815538112741   1.0000000
N2   N   0.526749389194036   0.906876222970509   0.110778991840052   1.0000000
N2   N   0.527085707504415   0.047953479825986   0.110760764784105   1.0000000
N2   N   0.527797877487637   0.189186193652044   0.110759199633768   1.0000000
N2   N   0.529844447282607   0.330620221221920   0.110693080600330   1.0000000
N2   N   0.495376017616189   0.538215366748464   0.111287235540148   1.0000000
N2   N   0.527704211762216   0.628400495558750   0.110686026338298   1.0000000
N2   N   0.526591961910677   0.766103436841831   0.110688001213074   1.0000000
N2   N   0.669875897443377   0.905931091023731   0.110736047646586   1.0000000
N2   N   0.670330975167638   0.048021956884574   0.110714135602702   1.0000000
N2   N   0.670694311389261   0.189690829695798   0.110699438835090   1.0000000
N2   N   0.671419397433975   0.331174968852141   0.110722564748441   1.0000000
N2   N   0.667825705160606   0.472460777797332   0.110717544540416   1.0000000
N2   N   0.658848197888777   0.609233076255966   0.110638926355071   1.0000000
N2   N   0.668988132691692   0.762778456846304   0.110611419416283   1.0000000
N2   N   0.811924399971677   0.904532766526152   0.110736820785511   1.0000000
N2   N   0.813148330640865   0.047953577809609   0.110775696556121   1.0000000
N2   N   0.813521329197866   0.190489933400803   0.110713249670287   1.0000000
N2   N   0.813430989940439   0.332812835156272   0.110683338505159   1.0000000
N2   N   0.811359351863724   0.475145199427502   0.110741444429878   1.0000000
N2   N   0.808398571786097   0.616739304451796   0.110707472766219   1.0000000
N2   N   0.807529884412984   0.757961453792312   0.110639747873119   1.0000000


