data_1
_audit_creation_method   'vasp2cif'
_cell_length_a    14.93631414619966
_cell_length_b    14.936314146199727
_cell_length_c    13.341276283792837
_cell_angle_alpha    90.0
_cell_angle_beta    90.0
_cell_angle_gamma    119.99999999999984

_symmetry_space_group_name_H-M    'P 1'
loop_
_atom_site_label
_atom_site_type_symbol
_atom_site_fract_x
_atom_site_fract_y
_atom_site_fract_z
_atom_site_occupancy
C2   C   0.434833701277343   0.375463929232817   0.375000000000000   1.0000000
C2   C   0.544837543670026   0.405592040452513   0.375000000000000   1.0000000
N2   N   0.111084493524425   0.055531058553867   0.125152953699353   1.0000000
N2   N   0.611187708115446   0.555530691145396   0.126176796733477   1.0000000
N2   N   0.444477709906365   0.055608541845679   0.125428201919013   1.0000000
N2   N   0.944570486563764   0.555615243218093   0.126039696950460   1.0000000
N2   N   0.777725785536511   0.055544549634553   0.125288551208073   1.0000000
N2   N   0.111204889456820   0.722263080310731   0.624736617663900   1.0000000
N2   N   0.444459847253921   0.722191017004102   0.624591636264877   1.0000000
N2   N   0.277776034653303   0.222208239476138   0.624361512754603   1.0000000
N2   N   0.777801555651675   0.722188789888035   0.624085212444717   1.0000000
N2   N   0.611169635244886   0.222331655415599   0.623952110353336   1.0000000
N2   N   0.944437959084612   0.222229412421337   0.624729338071597   1.0000000
N2   N   0.277839978861022   0.722239400551569   0.125149631764876   1.0000000
N2   N   0.111100218603290   0.222202005488468   0.125276219860992   1.0000000
N2   N   0.444480729042416   0.222273644041170   0.125903026254051   1.0000000
N2   N   0.611107098021923   0.722161229193999   0.125705947288274   1.0000000
N2   N   0.944522281628292   0.722244731916673   0.125733639712050   1.0000000
N2   N   0.777792483641712   0.222271522015036   0.125803916682125   1.0000000
N2   N   0.111151607173338   0.888907165961126   0.624857084266986   1.0000000
N2   N   0.444456167937727   0.888901288836765   0.624804121365308   1.0000000
N2   N   0.277827348712341   0.388874770574850   0.624219480498875   1.0000000
N2   N   0.611226444040553   0.388959704592225   0.624457729385083   1.0000000
N2   N   0.777730599377390   0.888840649448623   0.624677123319607   1.0000000
N2   N   0.944526857433585   0.388939845295955   0.624302264192878   1.0000000
N2   N   0.111163625929285   0.388900548882704   0.125304608534550   1.0000000
N2   N   0.277832066898032   0.888924955845815   0.125100189929499   1.0000000
N2   N   0.611071903468713   0.888861207014229   0.125340491306380   1.0000000
N2   N   0.444486711887190   0.388867543030854   0.125922662120173   1.0000000
N2   N   0.944433158327905   0.888863445653738   0.125258667192286   1.0000000
N2   N   0.777899215516273   0.388977418558693   0.126939266606091   1.0000000
N2   N   0.277840882511525   0.555549919099603   0.624579090741363   1.0000000
N2   N   0.111084493524427   0.055531058553867   0.624847046300638   1.0000000
N2   N   0.611187708115446   0.555530691145396   0.623823203266526   1.0000000
N2   N   0.444477709906365   0.055608541845679   0.624571798080989   1.0000000
N2   N   0.944570486563764   0.555615243218093   0.623960303049571   1.0000000
N2   N   0.111206211332207   0.555591490318616   0.125315286296732   1.0000000
N2   N   0.777725785536511   0.055544549634553   0.624711448791938   1.0000000
N2   N   0.277801791787933   0.055579329056610   0.125327831835489   1.0000000
N2   N   0.444491663230078   0.555504209287728   0.125929055857387   1.0000000
N2   N   0.777894965148665   0.555587526837694   0.127074499525597   1.0000000
N2   N   0.611093144102829   0.055594985672235   0.125491792672014   1.0000000
N2   N   0.444491663230078   0.555504209287728   0.624070944142599   1.0000000
N2   N   0.944393858905358   0.055521789543396   0.125121855248286   1.0000000
N2   N   0.277839978861022   0.722239400551569   0.624850368235106   1.0000000
N2   N   0.111100218603290   0.222202005488468   0.624723780139029   1.0000000
N2   N   0.444480729042416   0.222273644041170   0.624096973745966   1.0000000
N2   N   0.611107098021923   0.722161229193999   0.624294052711738   1.0000000
N2   N   0.944522281628292   0.722244731916673   0.624266360287938   1.0000000
N2   N   0.777792483641712   0.222271522015036   0.624196083317891   1.0000000
N2   N   0.111204889456820   0.722263080310731   0.125263382336090   1.0000000
N2   N   0.444459847253921   0.722191017004102   0.125408363735115   1.0000000
N2   N   0.277776034653303   0.222208239476144   0.125638487245403   1.0000000
N2   N   0.777801555651675   0.722188789888035   0.125914787555280   1.0000000
N2   N   0.611169635244886   0.222331655415599   0.126047889646665   1.0000000
N2   N   0.944437959084612   0.222229412421337   0.125270661928394   1.0000000
N2   N   0.111163625929285   0.388900548882704   0.624695391465453   1.0000000
N2   N   0.277832066898032   0.888924955845815   0.624899810070497   1.0000000
N2   N   0.611071903468713   0.888861207014229   0.624659508693628   1.0000000
N2   N   0.444486711887190   0.388867543030852   0.624077337879825   1.0000000
N2   N   0.944433158327905   0.888863445653738   0.624741332807729   1.0000000
N2   N   0.111151607173338   0.888907165961126   0.125142915733024   1.0000000
N2   N   0.777899215516273   0.388977418558693   0.623060733393884   1.0000000
N2   N   0.444456167937727   0.888901288836765   0.125195878634690   1.0000000
N2   N   0.277827348712341   0.388874770574850   0.125780519501128   1.0000000
N2   N   0.277840882511525   0.555549919099603   0.125420909258644   1.0000000
N2   N   0.611226444040553   0.388959704592225   0.125542270614913   1.0000000
N2   N   0.777730599377390   0.888840649448623   0.125322876680404   1.0000000
N2   N   0.944526857433585   0.388939845295955   0.125697735807119   1.0000000
N2   N   0.111206211332207   0.555591490318616   0.624684713703260   1.0000000
N2   N   0.277801791787933   0.055579329056610   0.624672168164487   1.0000000
N2   N   0.777894965148665   0.555587526837694   0.622925500474391   1.0000000
N2   N   0.611093144102829   0.055594985672235   0.624508207327989   1.0000000
N2   N   0.944393858905358   0.055521789543396   0.624878144751699   1.0000000
N2   N   0.050393349034398   0.108714629674308   0.375000000000000   1.0000000
N2   N   0.558012956354260   0.598666383501723   0.375000000000000   1.0000000
N2   N   0.387624902569395   0.115512948469246   0.375000000000000   1.0000000
N2   N   0.895859752783741   0.612747651652585   0.375000000000000   1.0000000
N2   N   0.720648231979836   0.116713603211058   0.375000000000000   1.0000000
N2   N   0.055550587003597   0.777771249134368   0.875000000000000   1.0000000
N2   N   0.388894587765930   0.777772870987440   0.875000000000000   1.0000000
N2   N   0.222222066641115   0.277770968285442   0.875000000000000   1.0000000
N2   N   0.722226759601054   0.777770668525540   0.875000000000000   1.0000000
N2   N   0.555553686102798   0.277766929662149   0.875000000000000   1.0000000
N2   N   0.888892407237531   0.277771333060634   0.875000000000000   1.0000000
N2   N   0.227281905348836   0.780827556636411   0.375000000000000   1.0000000
N2   N   0.051994177278688   0.277313332418195   0.375000000000000   1.0000000
N2   N   0.376186219505677   0.273508185387356   0.375000000000000   1.0000000
N2   N   0.557443502552984   0.774791380867257   0.375000000000000   1.0000000
N2   N   0.887975531354182   0.774595182491777   0.375000000000000   1.0000000
N2   N   0.720390879101580   0.290520312544911   0.375000000000000   1.0000000
N2   N   0.055553793112829   0.944442865827179   0.875000000000000   1.0000000
N2   N   0.388895511078231   0.944443202397409   0.875000000000000   1.0000000
N2   N   0.222223608805514   0.444433766601207   0.875000000000000   1.0000000
N2   N   0.555551518227708   0.444435057449016   0.875000000000000   1.0000000
N2   N   0.722230007194001   0.944441619937289   0.875000000000000   1.0000000
N2   N   0.888888120923558   0.444433952867119   0.875000000000000   1.0000000
N2   N   0.058812881099496   0.445972729062712   0.375000000000000   1.0000000
N2   N   0.223153275160839   0.946132036202503   0.375000000000000   1.0000000
N2   N   0.557177994654709   0.949664722731255   0.375000000000000   1.0000000
N2   N   0.389807450554728   0.435223820263391   0.375000000000000   1.0000000
N2   N   0.885658331864266   0.941916481195541   0.375000000000000   1.0000000
N2   N   0.222218889663562   0.611097730729561   0.875000000000000   1.0000000
N2   N   0.055554881957282   0.111104766130018   0.875000000000000   1.0000000
N2   N   0.555557080281052   0.611097328126193   0.875000000000000   1.0000000
N2   N   0.388891326660304   0.111106792557684   0.875000000000000   1.0000000
N2   N   0.888883594041308   0.611098633004269   0.875000000000000   1.0000000
N2   N   0.062754590500714   0.614468941895509   0.375000000000000   1.0000000
N2   N   0.722227899848523   0.111107194121733   0.875000000000000   1.0000000
N2   N   0.216350040965755   0.108137309888685   0.375000000000000   1.0000000
N2   N   0.393023464421728   0.607095049491299   0.375000000000000   1.0000000
N2   N   0.722541823247452   0.599984182759956   0.375000000000000   1.0000000
N2   N   0.556514098698348   0.126462516922737   0.375000000000000   1.0000000
N2   N   0.388894436563393   0.611099582879628   0.875000000000000   1.0000000
N2   N   0.885303628417672   0.111137937492729   0.375000000000000   1.0000000
N2   N   0.222220267136411   0.777770528416740   0.875000000000000   1.0000000
N2   N   0.055557169438600   0.277769989632495   0.875000000000000   1.0000000
N2   N   0.388888200089664   0.277771565596936   0.875000000000000   1.0000000
N2   N   0.555562985134872   0.777770769867780   0.875000000000000   1.0000000
N2   N   0.888888695965135   0.777773013308113   0.875000000000000   1.0000000
N2   N   0.722226616735633   0.277772730354355   0.875000000000000   1.0000000
N2   N   0.058828317945103   0.779263515863710   0.375000000000000   1.0000000
N2   N   0.393127001560946   0.779069001867089   0.375000000000000   1.0000000
N2   N   0.215282249527070   0.274650682294255   0.375000000000000   1.0000000
N2   N   0.721444059530357   0.772337141745932   0.375000000000000   1.0000000
N2   N   0.547088079676686   0.304961017028460   0.375000000000000   1.0000000
N2   N   0.886832565223338   0.280527828643415   0.375000000000000   1.0000000
N2   N   0.055552030987223   0.444432627514283   0.875000000000000   1.0000000
N2   N   0.222222302250583   0.944442747265044   0.875000000000000   1.0000000
N2   N   0.555563100917367   0.944443242281725   0.875000000000000   1.0000000
N2   N   0.388890902848493   0.444435808520944   0.875000000000000   1.0000000
N2   N   0.888893823422416   0.944441033057511   0.875000000000000   1.0000000
N2   N   0.052680061945034   0.942190824890844   0.375000000000000   1.0000000
N2   N   0.722225318588177   0.444436115792027   0.875000000000000   1.0000000
N2   N   0.392254794134364   0.949766254144791   0.375000000000000   1.0000000
N2   N   0.224043058598321   0.443078039888260   0.375000000000000   1.0000000
N2   N   0.227598824481593   0.612062279952709   0.375000000000000   1.0000000
N2   N   0.720891576345416   0.944314396331232   0.375000000000000   1.0000000
N2   N   0.895426918349132   0.450035370686938   0.375000000000000   1.0000000
N2   N   0.055547275404885   0.611096345887381   0.875000000000000   1.0000000
N2   N   0.222219589707387   0.111107052722947   0.875000000000000   1.0000000
N2   N   0.722221666546518   0.611099553504732   0.875000000000000   1.0000000
N2   N   0.555560515913284   0.111106748673790   0.875000000000000   1.0000000
N2   N   0.888895022272857   0.111105297836542   0.875000000000000   1.0000000
B2   B   0.105453741585675   0.052563615515614   0.375000000000000   1.0000000
B2   B   0.611580131642177   0.537812187457900   0.375000000000000   1.0000000
B2   B   0.445301384306784   0.061757201866936   0.375000000000000   1.0000000
B2   B   0.954325201085888   0.560581701910395   0.375000000000000   1.0000000
B2   B   0.774647815510293   0.056751257449631   0.375000000000000   1.0000000
B2   B   0.111135157752559   0.722237408107669   0.875000000000000   1.0000000
B2   B   0.444451345004469   0.722240793454726   0.875000000000000   1.0000000
B2   B   0.277732558507787   0.222182491925948   0.875000000000000   1.0000000
B2   B   0.777799840010828   0.722266905568879   0.875000000000000   1.0000000
B2   B   0.611102021457288   0.222169217552403   0.875000000000000   1.0000000
B2   B   0.944448865968867   0.222191034401154   0.875000000000000   1.0000000
B2   B   0.282388466818904   0.724043279247050   0.375000000000000   1.0000000
B2   B   0.104213291409150   0.219330120759172   0.375000000000000   1.0000000
B2   B   0.438118422080360   0.224877488113846   0.375000000000000   1.0000000
B2   B   0.611094162599600   0.715167417075778   0.375000000000000   1.0000000
B2   B   0.948969336538635   0.725167496868244   0.375000000000000   1.0000000
B2   B   0.775755693928252   0.227607950980267   0.375000000000000   1.0000000
B2   B   0.111118064774144   0.888900672925016   0.875000000000000   1.0000000
B2   B   0.444450259738274   0.888879689175371   0.875000000000000   1.0000000
B2   B   0.277744531068266   0.388872410290738   0.875000000000000   1.0000000
B2   B   0.611097583789033   0.388859682027043   0.875000000000000   1.0000000
B2   B   0.777792827414679   0.888913193542402   0.875000000000000   1.0000000
B2   B   0.944468358289904   0.388863154298984   0.875000000000000   1.0000000
B2   B   0.112044600392865   0.388329094314910   0.375000000000000   1.0000000
B2   B   0.280992236553733   0.892312108151261   0.375000000000000   1.0000000
B2   B   0.610544077793790   0.889115335342005   0.375000000000000   1.0000000
B2   B   0.941821597558368   0.886757071442781   0.375000000000000   1.0000000
B2   B   0.789256035571408   0.396097839259815   0.375000000000000   1.0000000
B2   B   0.277775043461487   0.555560268052648   0.875000000000000   1.0000000
B2   B   0.111089196149288   0.055540903855888   0.875000000000000   1.0000000
B2   B   0.611109319202115   0.555577054093879   0.875000000000000   1.0000000
B2   B   0.444433333619498   0.055513346791579   0.875000000000000   1.0000000
B2   B   0.944480854898222   0.555563971797040   0.875000000000000   1.0000000
B2   B   0.117000124008253   0.557388092531889   0.375000000000000   1.0000000
B2   B   0.777788213580525   0.055538436055808   0.875000000000000   1.0000000
B2   B   0.275546625769521   0.056381657834213   0.375000000000000   1.0000000
B2   B   0.447631262714170   0.549784304086466   0.375000000000000   1.0000000
B2   B   0.789890285354040   0.561247087560265   0.375000000000000   1.0000000
B2   B   0.610059839974237   0.063618850648454   0.375000000000000   1.0000000
B2   B   0.444434694510404   0.555573301781881   0.875000000000000   1.0000000
B2   B   0.939614902491238   0.053545468661185   0.375000000000000   1.0000000
B2   B   0.277791545550819   0.722229273891433   0.875000000000000   1.0000000
B2   B   0.111081618979643   0.222191669909232   0.875000000000000   1.0000000
B2   B   0.444414695504835   0.222171553565371   0.875000000000000   1.0000000
B2   B   0.611120455386196   0.722256025681918   0.875000000000000   1.0000000
B2   B   0.944476038743972   0.722260460099498   0.875000000000000   1.0000000
B2   B   0.777791553419167   0.222179390580636   0.875000000000000   1.0000000
B2   B   0.116899070378905   0.725774932881585   0.375000000000000   1.0000000
B2   B   0.446995442127338   0.720462375408637   0.375000000000000   1.0000000
B2   B   0.265751287973660   0.216681999998502   0.375000000000000   1.0000000
B2   B   0.777331512466477   0.717312668623670   0.375000000000000   1.0000000
B2   B   0.608541742401997   0.241939497693313   0.375000000000000   1.0000000
B2   B   0.940847941422659   0.222245937668469   0.375000000000000   1.0000000
B2   B   0.111106671389068   0.388869015671279   0.875000000000000   1.0000000
B2   B   0.277782432812308   0.888881275442526   0.875000000000000   1.0000000
B2   B   0.611122258458807   0.888895800503201   0.875000000000000   1.0000000
B2   B   0.444412216046197   0.388870828366494   0.875000000000000   1.0000000
B2   B   0.944457884509536   0.888916406405056   0.875000000000000   1.0000000
B2   B   0.111995270282576   0.890159613186500   0.375000000000000   1.0000000
B2   B   0.777796705360386   0.388862269443374   0.875000000000000   1.0000000
B2   B   0.446646044390391   0.891835006523576   0.375000000000000   1.0000000
B2   B   0.275025108081837   0.384153883138546   0.375000000000000   1.0000000
B2   B   0.281481639489421   0.554578624134164   0.375000000000000   1.0000000
B2   B   0.775123705303669   0.886116506462827   0.375000000000000   1.0000000
B2   B   0.948571946238814   0.390756524574170   0.375000000000000   1.0000000
B2   B   0.111129835552139   0.555552924684274   0.875000000000000   1.0000000
B2   B   0.277753724806285   0.055524048329427   0.875000000000000   1.0000000
B2   B   0.777798075470197   0.555574451214811   0.875000000000000   1.0000000
B2   B   0.611114526283892   0.055520928219677   0.875000000000000   1.0000000
B2   B   0.944442225782789   0.055546392710502   0.875000000000000   1.0000000
B2   B   0.055468440443624   0.111026516499721   0.124673064279759   1.0000000
B2   B   0.555591980671561   0.611210292454693   0.125220617050591   1.0000000
B2   B   0.388827223582897   0.110973192827896   0.124909334587155   1.0000000
B2   B   0.889178037545865   0.611290516387749   0.125375430269976   1.0000000
B2   B   0.722171521970046   0.111017694981866   0.124949300988495   1.0000000
B2   B   0.055751922358449   0.777883616882805   0.625203476271699   1.0000000
B2   B   0.388924430145082   0.777812559561783   0.625177146017706   1.0000000
B2   B   0.222100710534014   0.277701598691539   0.625171514849016   1.0000000
B2   B   0.722220653375912   0.777847108673742   0.624970392001123   1.0000000
B2   B   0.555596952600080   0.277805641010807   0.624971919192236   1.0000000
B2   B   0.888963530782852   0.277758314858251   0.625051801642573   1.0000000
B2   B   0.222369295766753   0.777842576877184   0.124691559054095   1.0000000
B2   B   0.055542923796927   0.277766318909039   0.124737042505177   1.0000000
B2   B   0.388796472444921   0.277675185238896   0.124764434054614   1.0000000
B2   B   0.555527362319592   0.777811694482347   0.125007028580833   1.0000000
B2   B   0.889000384538628   0.777886921418555   0.124995504467882   1.0000000
B2   B   0.722258332345065   0.277698469133630   0.125356140430356   1.0000000
B2   B   0.055563562577179   0.944421055325987   0.625314997913246   1.0000000
B2   B   0.388894583247954   0.944385345560098   0.625230285808643   1.0000000
B2   B   0.222230907023240   0.444507289507689   0.625089446411209   1.0000000
B2   B   0.555635307174233   0.444449771209719   0.625022326939664   1.0000000
B2   B   0.722151740951550   0.944409381959762   0.625154128469404   1.0000000
B2   B   0.889155383080592   0.444545739819736   0.624682907705350   1.0000000
B2   B   0.055727560188278   0.444529921352348   0.124823679266432   1.0000000
B2   B   0.222252044151315   0.944393180716820   0.124688676560441   1.0000000
B2   B   0.555503551880461   0.944391924526164   0.124900960843118   1.0000000
B2   B   0.388858063115982   0.444470511365808   0.124909137735120   1.0000000
B2   B   0.888854179415413   0.944434407415281   0.124741421823127   1.0000000
B2   B   0.722261011176819   0.444453784989588   0.125552757878093   1.0000000
B2   B   0.222356982472655   0.611219350118195   0.625214681902334   1.0000000
B2   B   0.055468440443624   0.111026516499721   0.625326935720250   1.0000000
B2   B   0.555591980671561   0.611210292454693   0.624779382949397   1.0000000
B2   B   0.388827223582897   0.110973192827896   0.625090665412831   1.0000000
B2   B   0.889178037545865   0.611290516387749   0.624624569730013   1.0000000
B2   B   0.055842560656837   0.611264242810728   0.124867285871030   1.0000000
B2   B   0.722171521970046   0.111017694981866   0.625050699011509   1.0000000
B2   B   0.222110311313635   0.110964704652796   0.124761603862275   1.0000000
B2   B   0.388898005289226   0.611200041784835   0.125020435115429   1.0000000
B2   B   0.722313037233584   0.611250458474607   0.125452964394632   1.0000000
B2   B   0.555517159062277   0.111018223144525   0.125047887204885   1.0000000
B2   B   0.388898005289226   0.611200041784835   0.624979564884559   1.0000000
B2   B   0.888835856947743   0.111052300030836   0.124728319130555   1.0000000
B2   B   0.222369295766753   0.777842576877184   0.625308440945916   1.0000000
B2   B   0.055542923796927   0.277766318909039   0.625262957494861   1.0000000
B2   B   0.388796472444921   0.277675185238896   0.625235565945407   1.0000000
B2   B   0.555527362319592   0.777811694482347   0.624992971419146   1.0000000
B2   B   0.889000384538628   0.777886921418555   0.625004495532121   1.0000000
B2   B   0.722258332345065   0.277698469133630   0.624643859569625   1.0000000
B2   B   0.055751922358449   0.777883616882805   0.124796523728282   1.0000000
B2   B   0.388924430145082   0.777812559561783   0.124822853982307   1.0000000
B2   B   0.222100710534014   0.277701598691539   0.124828485150967   1.0000000
B2   B   0.722220653375912   0.777847108673742   0.125029607998875   1.0000000
B2   B   0.555596952600080   0.277805641010799   0.125028080807751   1.0000000
B2   B   0.888963530782852   0.277758314858251   0.124948198357411   1.0000000
B2   B   0.055727560188278   0.444529921352348   0.625176320733564   1.0000000
B2   B   0.222252044151315   0.944393180716820   0.625311323439569   1.0000000
B2   B   0.555503551880461   0.944391924526165   0.625099039156898   1.0000000
B2   B   0.388858063115982   0.444470511365808   0.625090862264851   1.0000000
B2   B   0.888854179415413   0.944434407415281   0.625258578176876   1.0000000
B2   B   0.055563562577179   0.944421055325987   0.124685002086741   1.0000000
B2   B   0.722261011176819   0.444453784989588   0.624447242121890   1.0000000
B2   B   0.388894583247954   0.944385345560098   0.124769714191370   1.0000000
B2   B   0.222230907023240   0.444507289507689   0.124910553588788   1.0000000
B2   B   0.222356982472655   0.611219350118195   0.124785318097644   1.0000000
B2   B   0.555635307174233   0.444449771209719   0.124977673060310   1.0000000
B2   B   0.722151740951550   0.944409381959762   0.124845871530585   1.0000000
B2   B   0.889155383080592   0.444545739819736   0.125317092294666   1.0000000
B2   B   0.055842560656837   0.611264242810728   0.625132714128977   1.0000000
B2   B   0.222110311313635   0.110964704652796   0.625238396137711   1.0000000
B2   B   0.722313037233584   0.611250458474607   0.624547035605345   1.0000000
B2   B   0.555517159062277   0.111018223144525   0.624952112795127   1.0000000
B2   B   0.888835856947743   0.111052300030836   0.625271680869441   1.0000000


