data_1
_audit_creation_method   'vasp2cif'
_cell_length_a    14.93631414619966
_cell_length_b    14.936314146199727
_cell_length_c    13.341276283792837
_cell_angle_alpha    90.0
_cell_angle_beta    90.0
_cell_angle_gamma    119.99999999999984

_symmetry_space_group_name_H-M    'P 1'
loop_
_atom_site_label
_atom_site_type_symbol
_atom_site_fract_x
_atom_site_fract_y
_atom_site_fract_z
_atom_site_occupancy
C2   C   0.609482340819907   0.388376102623187   0.375000000000000   1.0000000
C2   C   0.445560428469952   0.388376102623187   0.375000000000000   1.0000000
C2   C   0.552345921019166   0.438025175371661   0.375000000000000   1.0000000
N2   N   0.111114495457873   0.055561582773807   0.125083825745116   1.0000000
N2   N   0.611098339611474   0.555530012556278   0.123961302010145   1.0000000
N2   N   0.444449298013353   0.055564713151542   0.125121662338822   1.0000000
N2   N   0.944438745123617   0.555541206900659   0.125025055070617   1.0000000
N2   N   0.777787354692033   0.055576286022220   0.125021418306838   1.0000000
N2   N   0.111100133095996   0.722205935665454   0.625001385261707   1.0000000
N2   N   0.444443094898395   0.722201864782423   0.625010556583782   1.0000000
N2   N   0.277788637116885   0.222245119607553   0.624754549162868   1.0000000
N2   N   0.777764993037263   0.722218221354402   0.624969022448488   1.0000000
N2   N   0.611123149157339   0.222245119607553   0.624754549162868   1.0000000
N2   N   0.944453314720952   0.222239962775241   0.624942873314450   1.0000000
N2   N   0.277772469236130   0.722205935665454   0.124998614738293   1.0000000
N2   N   0.111113121903878   0.222234413394952   0.125104331352822   1.0000000
N2   N   0.444460314972161   0.222253963277659   0.125249432572795   1.0000000
N2   N   0.611119894983811   0.722218221354402   0.125030977551511   1.0000000
N2   N   0.944425436550692   0.722201864782423   0.124989443416218   1.0000000
N2   N   0.777787958157746   0.222234413394952   0.125104331352822   1.0000000
N2   N   0.111100923774550   0.888880094074511   0.624985427094965   1.0000000
N2   N   0.444445836966632   0.888880094074511   0.624985427094965   1.0000000
N2   N   0.277771332762281   0.388891064402072   0.624821043253809   1.0000000
N2   N   0.611131007980235   0.388887426761482   0.625244403001426   1.0000000
N2   N   0.777787235953504   0.888907805240338   0.625041383888544   1.0000000
N2   N   0.944454011497563   0.388895176897852   0.624927840645132   1.0000000
N2   N   0.111107832066962   0.388895176897852   0.125072159354867   1.0000000
N2   N   0.277774283451719   0.888881900236766   0.125028062039218   1.0000000
N2   N   0.611117996304329   0.888886204311556   0.124987801977957   1.0000000
N2   N   0.444423085447918   0.388887426761482   0.124755596998574   1.0000000
N2   N   0.944434874673898   0.888886204311556   0.124987801977957   1.0000000
N2   N   0.777786398306462   0.388891064402072   0.125178956746191   1.0000000
N2   N   0.277769128443705   0.555541206900659   0.624974944929382   1.0000000
N2   N   0.111114495457873   0.055561582773807   0.624916174254883   1.0000000
N2   N   0.611098339611474   0.555530012556278   0.626038697989855   1.0000000
N2   N   0.444449298013353   0.055564713151542   0.624878337661178   1.0000000
N2   N   0.944438745123617   0.555541206900659   0.624974944929382   1.0000000
N2   N   0.111106937646585   0.555547208626501   0.125016737557990   1.0000000
N2   N   0.777787354692033   0.055576286022220   0.624978581693162   1.0000000
N2   N   0.277782081804854   0.055564713151542   0.125121662338822   1.0000000
N2   N   0.444423635788335   0.555522285457034   0.125043889749148   1.0000000
N2   N   0.777765316335361   0.555522285457034   0.125043889749148   1.0000000
N2   N   0.611113753982606   0.055561582773807   0.125083825745116   1.0000000
N2   N   0.444423635788335   0.555522285457034   0.624956110250853   1.0000000
N2   N   0.944455597996852   0.055576286022220   0.125021418306838   1.0000000
N2   N   0.277772469236130   0.722205935665454   0.625001385261707   1.0000000
N2   N   0.111113121903878   0.222234413394952   0.624895668647180   1.0000000
N2   N   0.444460314972161   0.222253963277659   0.624750567427205   1.0000000
N2   N   0.611119894983811   0.722218221354402   0.624969022448488   1.0000000
N2   N   0.944425436550692   0.722201864782423   0.625010556583782   1.0000000
N2   N   0.777787958157746   0.222234413394952   0.624895668647180   1.0000000
N2   N   0.111100133095996   0.722205935665454   0.124998614738293   1.0000000
N2   N   0.444443094898395   0.722201864782423   0.124989443416218   1.0000000
N2   N   0.277788637116885   0.222245119607553   0.125245450837132   1.0000000
N2   N   0.777764993037263   0.722218221354402   0.125030977551511   1.0000000
N2   N   0.611123149157339   0.222245119607553   0.125245450837132   1.0000000
N2   N   0.944453314720952   0.222239962775241   0.125057126685550   1.0000000
N2   N   0.111107832066962   0.388895176897852   0.624927840645132   1.0000000
N2   N   0.277774283451719   0.888881900236766   0.624971937960783   1.0000000
N2   N   0.611117996304329   0.888886204311556   0.625012198022045   1.0000000
N2   N   0.444423085447918   0.388887426761482   0.625244403001426   1.0000000
N2   N   0.944434874673898   0.888886204311556   0.625012198022045   1.0000000
N2   N   0.111100923774550   0.888880094074511   0.125014572905036   1.0000000
N2   N   0.777786398306462   0.388891064402072   0.624821043253809   1.0000000
N2   N   0.444445836966632   0.888880094074511   0.125014572905036   1.0000000
N2   N   0.277771332762281   0.388891064402072   0.125178956746191   1.0000000
N2   N   0.277769128443705   0.555541206900659   0.125025055070617   1.0000000
N2   N   0.611131007980235   0.388887426761482   0.124755596998574   1.0000000
N2   N   0.777787235953504   0.888907805240338   0.124958616111456   1.0000000
N2   N   0.944454011497563   0.388895176897852   0.125072159354867   1.0000000
N2   N   0.111106937646585   0.555547208626501   0.624983262442011   1.0000000
N2   N   0.277782081804854   0.055564713151542   0.624878337661178   1.0000000
N2   N   0.777765316335361   0.555522285457034   0.624956110250853   1.0000000
N2   N   0.611113753982606   0.055561582773807   0.624916174254883   1.0000000
N2   N   0.944455597996852   0.055576286022220   0.624978581693162   1.0000000
N2   N   0.055911364264013   0.111348849783838   0.375000000000000   1.0000000
N2   N   0.555995681518742   0.613133668780697   0.375000000000000   1.0000000
N2   N   0.390124560476125   0.113582454285594   0.375000000000000   1.0000000
N2   N   0.886300765985562   0.609535756477672   0.375000000000000   1.0000000
N2   N   0.722104152186488   0.111348849783838   0.375000000000000   1.0000000
N2   N   0.055564680499060   0.777788409775019   0.875000000000000   1.0000000
N2   N   0.388890395942624   0.777788409775019   0.875000000000000   1.0000000
N2   N   0.222225597625932   0.277777646144086   0.875000000000000   1.0000000
N2   N   0.722225672176042   0.777784677685424   0.875000000000000   1.0000000
N2   N   0.555551908279085   0.277774589083639   0.875000000000000   1.0000000
N2   N   0.888887572888097   0.277778400947814   0.875000000000000   1.0000000
N2   N   0.222187243929687   0.777707821192709   0.375000000000000   1.0000000
N2   N   0.055791474233261   0.277954381098387   0.375000000000000   1.0000000
N2   N   0.390295215098223   0.281258460934561   0.375000000000000   1.0000000
N2   N   0.555792953872819   0.777965778513660   0.375000000000000   1.0000000
N2   N   0.888839491307504   0.777965778513660   0.375000000000000   1.0000000
N2   N   0.722003761632665   0.277556485136232   0.375000000000000   1.0000000
N2   N   0.055561578693259   0.944451493287050   0.875000000000000   1.0000000
N2   N   0.388892254729712   0.944452460463246   0.875000000000000   1.0000000
N2   N   0.222224164825490   0.444447536105916   0.875000000000000   1.0000000
N2   N   0.555553773341773   0.444440880016875   0.875000000000000   1.0000000
N2   N   0.722222084344606   0.944448271737216   0.875000000000000   1.0000000
N2   N   0.888890037947089   0.444447536105916   0.875000000000000   1.0000000
N2   N   0.055482289791746   0.444297912916821   0.375000000000000   1.0000000
N2   N   0.222706166867115   0.945123365286188   0.375000000000000   1.0000000
N2   N   0.555496228088385   0.944864262998610   0.375000000000000   1.0000000
N2   N   0.391553017436313   0.440718289382627   0.375000000000000   1.0000000
N2   N   0.889374228420242   0.945031547796509   0.375000000000000   1.0000000
N2   N   0.715831938612979   0.440718289382627   0.375000000000000   1.0000000
N2   N   0.222222935706235   0.611115937349805   0.875000000000000   1.0000000
N2   N   0.055557778719257   0.111109993053352   0.875000000000000   1.0000000
N2   N   0.555555549221046   0.611117058649457   0.875000000000000   1.0000000
N2   N   0.388888892232025   0.111111117797393   0.875000000000000   1.0000000
N2   N   0.888894476093903   0.611117049903885   0.875000000000000   1.0000000
N2   N   0.054760385205791   0.610665174754221   0.375000000000000   1.0000000
N2   N   0.722218881000759   0.111109993053352   0.875000000000000   1.0000000
N2   N   0.223348813679491   0.112247425563041   0.375000000000000   1.0000000
N2   N   0.389901657158768   0.609535756477672   0.375000000000000   1.0000000
N2   N   0.723804653928619   0.613133668780697   0.375000000000000   1.0000000
N2   N   0.555565278550214   0.112247425563041   0.375000000000000   1.0000000
N2   N   0.388889240476640   0.611117049903885   0.875000000000000   1.0000000
N2   N   0.889058577929919   0.111450489193182   0.375000000000000   1.0000000
N2   N   0.222226782355579   0.777786898044494   0.875000000000000   1.0000000
N2   N   0.055557494726381   0.277778400947814   0.875000000000000   1.0000000
N2   N   0.388889347471218   0.277774589083639   0.875000000000000   1.0000000
N2   N   0.555555834318783   0.777786054199568   0.875000000000000   1.0000000
N2   N   0.888896886547450   0.777786054199568   0.875000000000000   1.0000000
N2   N   0.722218715184817   0.277777646144086   0.875000000000000   1.0000000
N2   N   0.055026919805905   0.777412869283860   0.375000000000000   1.0000000
N2   N   0.389052616144620   0.777412869283860   0.375000000000000   1.0000000
N2   N   0.222219390170231   0.277556485136232   0.375000000000000   1.0000000
N2   N   0.723040916767664   0.779415166868667   0.375000000000000   1.0000000
N2   N   0.557629912503003   0.281258460934561   0.375000000000000   1.0000000
N2   N   0.888829573531789   0.277954381098387   0.375000000000000   1.0000000
N2   N   0.055557040493583   0.444447414320496   0.875000000000000   1.0000000
N2   N   0.222226872400199   0.944452460463246   0.875000000000000   1.0000000
N2   N   0.555556581260463   0.944451493287050   0.875000000000000   1.0000000
N2   N   0.388891251911631   0.444446783811763   0.875000000000000   1.0000000
N2   N   0.888892854059275   0.944448271737216   0.875000000000000   1.0000000
N2   N   0.056034701576898   0.944864262998610   0.375000000000000   1.0000000
N2   N   0.722222198566797   0.444446783811763   0.875000000000000   1.0000000
N2   N   0.389083865085738   0.945123365286188   0.375000000000000   1.0000000
N2   N   0.223728321316798   0.443979981670310   0.375000000000000   1.0000000
N2   N   0.222571456215094   0.610665174754221   0.375000000000000   1.0000000
N2   N   0.722323986042930   0.945031547796509   0.375000000000000   1.0000000
N2   N   0.886918327020176   0.443979981670310   0.375000000000000   1.0000000
N2   N   0.055559668310234   0.611115937349805   0.875000000000000   1.0000000
N2   N   0.222224011436609   0.111111659495162   0.875000000000000   1.0000000
N2   N   0.722228176095074   0.611117058649457   0.875000000000000   1.0000000
N2   N   0.555554314725218   0.111111659495162   0.875000000000000   1.0000000
N2   N   0.888888522199692   0.111110377732727   0.875000000000000   1.0000000
B2   B   0.111358786958573   0.055748615771321   0.375000000000000   1.0000000
B2   B   0.444512298028674   0.056234840096653   0.375000000000000   1.0000000
B2   B   0.943002614829279   0.555506051818539   0.375000000000000   1.0000000
B2   B   0.777764635500187   0.055568919285300   0.375000000000000   1.0000000
B2   B   0.111104737605859   0.722230525060885   0.875000000000000   1.0000000
B2   B   0.444473145828552   0.722226549106481   0.875000000000000   1.0000000
B2   B   0.277785793961431   0.222230159106645   0.875000000000000   1.0000000
B2   B   0.777752413614591   0.722205294845085   0.875000000000000   1.0000000
B2   B   0.611111031811886   0.222230159106645   0.875000000000000   1.0000000
B2   B   0.944436998273968   0.222207329881270   0.875000000000000   1.0000000
B2   B   0.277998200175373   0.722023840447911   0.375000000000000   1.0000000
B2   B   0.110646044351594   0.221995818359997   0.375000000000000   1.0000000
B2   B   0.445613661804047   0.224560656941429   0.375000000000000   1.0000000
B2   B   0.612120262819442   0.721463527181611   0.375000000000000   1.0000000
B2   B   0.942932771814915   0.721348174738552   0.375000000000000   1.0000000
B2   B   0.778016440675074   0.221995818359997   0.375000000000000   1.0000000
B2   B   0.111088069739492   0.888873908730421   0.875000000000000   1.0000000
B2   B   0.444452505657601   0.888873908730421   0.875000000000000   1.0000000
B2   B   0.277818316970559   0.388926976212945   0.875000000000000   1.0000000
B2   B   0.611119368509862   0.388949766183477   0.875000000000000   1.0000000
B2   B   0.777753770315089   0.888840873963506   0.875000000000000   1.0000000
B2   B   0.944446605068036   0.388905315236737   0.875000000000000   1.0000000
B2   B   0.111822077251887   0.389051352789281   0.375000000000000   1.0000000
B2   B   0.277800611677409   0.888934556688147   0.375000000000000   1.0000000
B2   B   0.611083045641688   0.888739958341096   0.375000000000000   1.0000000
B2   B   0.944323579366077   0.888739958341096   0.375000000000000   1.0000000
B2   B   0.775793324015653   0.387896051407199   0.375000000000000   1.0000000
B2   B   0.277817420240446   0.555587926030851   0.875000000000000   1.0000000
B2   B   0.111086952856032   0.055529605075517   0.875000000000000   1.0000000
B2   B   0.611133458882328   0.555600251097986   0.875000000000000   1.0000000
B2   B   0.444442100375956   0.055540939651952   0.875000000000000   1.0000000
B2   B   0.944437172457070   0.555587926030851   0.875000000000000   1.0000000
B2   B   0.111118990304835   0.555571313943000   0.375000000000000   1.0000000
B2   B   0.777763890132930   0.055515731568400   0.875000000000000   1.0000000
B2   B   0.278389208734642   0.056234840096653   0.375000000000000   1.0000000
B2   B   0.449230451185714   0.555407550990307   0.375000000000000   1.0000000
B2   B   0.772843766471258   0.555407550990307   0.375000000000000   1.0000000
B2   B   0.611056495479420   0.055748615771321   0.375000000000000   1.0000000
B2   B   0.444508387143757   0.555605042803873   0.875000000000000   1.0000000
B2   B   0.944470950451777   0.055568919285300   0.375000000000000   1.0000000
B2   B   0.277792454121697   0.722230525060885   0.875000000000000   1.0000000
B2   B   0.111106657154110   0.222213271851536   0.875000000000000   1.0000000
B2   B   0.444452098866126   0.222237531065588   0.875000000000000   1.0000000
B2   B   0.611119547897165   0.722205294845085   0.875000000000000   1.0000000
B2   B   0.944420069944594   0.722226549106481   0.875000000000000   1.0000000
B2   B   0.777773281364098   0.222213271851536   0.875000000000000   1.0000000
B2   B   0.110692306939211   0.722023840447911   0.375000000000000   1.0000000
B2   B   0.445082069590301   0.721348174738552   0.375000000000000   1.0000000
B2   B   0.277211296938365   0.222704995855307   0.375000000000000   1.0000000
B2   B   0.776009931028841   0.721463527181611   0.375000000000000   1.0000000
B2   B   0.612160365583614   0.222704995855307   0.375000000000000   1.0000000
B2   B   0.944502216320228   0.222337765973793   0.375000000000000   1.0000000
B2   B   0.111125376835373   0.388905315236737   0.875000000000000   1.0000000
B2   B   0.277772380213368   0.888878093760064   0.875000000000000   1.0000000
B2   B   0.611110760953610   0.888854778394002   0.875000000000000   1.0000000
B2   B   0.444497064340288   0.388949766183477   0.875000000000000   1.0000000
B2   B   0.944410684107063   0.888854778394002   0.875000000000000   1.0000000
B2   B   0.110965656123158   0.888708875964889   0.375000000000000   1.0000000
B2   B   0.777775325909058   0.388926976212945   0.875000000000000   1.0000000
B2   B   0.444409886508403   0.888708875964889   0.375000000000000   1.0000000
B2   B   0.278769394058217   0.387896051407199   0.375000000000000   1.0000000
B2   B   0.279170103655922   0.555506051818539   0.375000000000000   1.0000000
B2   B   0.777958256068774   0.889249845470877   0.375000000000000   1.0000000
B2   B   0.943895942204066   0.389051352789281   0.375000000000000   1.0000000
B2   B   0.111122210516989   0.555577754367307   0.875000000000000   1.0000000
B2   B   0.277765505942661   0.055540939651952   0.875000000000000   1.0000000
B2   B   0.777763322326781   0.555605042803873   0.875000000000000   1.0000000
B2   B   0.611109318886155   0.055529605075517   0.875000000000000   1.0000000
B2   B   0.944418508102134   0.055515731568400   0.875000000000000   1.0000000
B2   B   0.055493986324147   0.111072658164696   0.124979077745404   1.0000000
B2   B   0.555720222965821   0.611078835268944   0.125605937481068   1.0000000
B2   B   0.388880307497848   0.111093948329039   0.124951138948737   1.0000000
B2   B   0.888770758771590   0.611103584020114   0.125127966270085   1.0000000
B2   B   0.722245338507215   0.111072658164696   0.124979077745404   1.0000000
B2   B   0.055434014587194   0.777692931403095   0.624985458009901   1.0000000
B2   B   0.388925583482566   0.777692931403095   0.624985458009901   1.0000000
B2   B   0.222205954916026   0.277844281693802   0.625070139886595   1.0000000
B2   B   0.722154130734971   0.777641594803280   0.624700819200539   1.0000000
B2   B   0.555669655898885   0.277971069423998   0.625342917455874   1.0000000
B2   B   0.888927510591005   0.277808271290630   0.625020315204730   1.0000000
B2   B   0.222187508066910   0.777708349467156   0.124992676440437   1.0000000
B2   B   0.055547427366288   0.277808271290630   0.124979684795270   1.0000000
B2   B   0.388968080191778   0.277971069423998   0.124657082544126   1.0000000
B2   B   0.555625249151782   0.777655312578672   0.125170313054392   1.0000000
B2   B   0.888696730093555   0.777655312578672   0.125170313054392   1.0000000
B2   B   0.722304993444442   0.277844281693802   0.124929860113405   1.0000000
B2   B   0.055435459804651   0.944342409802816   0.625001706719183   1.0000000
B2   B   0.388872875334227   0.944353086896767   0.625021983713668   1.0000000
B2   B   0.222249601259192   0.444516894443432   0.625004458502380   1.0000000
B2   B   0.555729798736640   0.444792930806609   0.624998201164055   1.0000000
B2   B   0.722214997686745   0.944349197724250   0.624976416163378   1.0000000
B2   B   0.888933959850904   0.444516894443432   0.625004458502380   1.0000000
B2   B   0.055576734937025   0.444486803207378   0.124986742336330   1.0000000
B2   B   0.222146878229204   0.944353086896767   0.124978016286332   1.0000000
B2   B   0.555573616664838   0.944342409802816   0.124998293280818   1.0000000
B2   B   0.389037501689582   0.444614667334764   0.124811273867731   1.0000000
B2   B   0.888800866704169   0.944349197724250   0.125023583836622   1.0000000
B2   B   0.722243832311846   0.444614667334764   0.124811273867731   1.0000000
B2   B   0.222245583866209   0.611106910144673   0.625003132923693   1.0000000
B2   B   0.055493986324147   0.111072658164696   0.625020922254597   1.0000000
B2   B   0.555720222965821   0.611078835268944   0.624394062518931   1.0000000
B2   B   0.388880307497848   0.111093948329039   0.625048861051263   1.0000000
B2   B   0.888770758771590   0.611103584020114   0.624872033729915   1.0000000
B2   B   0.055527992945128   0.611106910144673   0.124996867076307   1.0000000
B2   B   0.722245338507215   0.111072658164696   0.625020922254597   1.0000000
B2   B   0.222163119212636   0.111073958373712   0.124971845999707   1.0000000
B2   B   0.388999491915181   0.611103584020114   0.125127966270085   1.0000000
B2   B   0.722025278969788   0.611078835268944   0.125605937481068   1.0000000
B2   B   0.555577505827741   0.111073958373712   0.124971845999707   1.0000000
B2   B   0.388999491915181   0.611103584020114   0.624872033729915   1.0000000
B2   B   0.888872397516011   0.111078128365365   0.124995871690750   1.0000000
B2   B   0.222187508066910   0.777708349467156   0.625007323559563   1.0000000
B2   B   0.055547427366288   0.277808271290630   0.625020315204730   1.0000000
B2   B   0.388968080191778   0.277971069423998   0.625342917455874   1.0000000
B2   B   0.555625249151782   0.777655312578672   0.624829686945608   1.0000000
B2   B   0.888696730093555   0.777655312578672   0.624829686945608   1.0000000
B2   B   0.722304993444442   0.277844281693802   0.625070139886595   1.0000000
B2   B   0.055434014587194   0.777692931403095   0.125014541990099   1.0000000
B2   B   0.388925583482566   0.777692931403095   0.125014541990099   1.0000000
B2   B   0.222205954916026   0.277844281693802   0.124929860113405   1.0000000
B2   B   0.722154130734971   0.777641594803280   0.125299180799461   1.0000000
B2   B   0.555669655898885   0.277971069423998   0.124657082544126   1.0000000
B2   B   0.888927510591005   0.277808271290630   0.124979684795270   1.0000000
B2   B   0.055576734937025   0.444486803207378   0.625013257663671   1.0000000
B2   B   0.222146878229204   0.944353086896767   0.625021983713668   1.0000000
B2   B   0.555573616664838   0.944342409802816   0.625001706719183   1.0000000
B2   B   0.389037501689582   0.444614667334764   0.625188726132268   1.0000000
B2   B   0.888800866704169   0.944349197724250   0.624976416163378   1.0000000
B2   B   0.055435459804651   0.944342409802816   0.124998293280818   1.0000000
B2   B   0.722243832311846   0.444614667334764   0.625188726132268   1.0000000
B2   B   0.388872875334227   0.944353086896767   0.124978016286332   1.0000000
B2   B   0.222249601259192   0.444516894443432   0.124995541497620   1.0000000
B2   B   0.222245583866209   0.611106910144673   0.124996867076307   1.0000000
B2   B   0.555729798736640   0.444792930806609   0.125001798835946   1.0000000
B2   B   0.722214997686745   0.944349197724250   0.125023583836622   1.0000000
B2   B   0.888933959850904   0.444516894443432   0.124995541497620   1.0000000
B2   B   0.055527992945128   0.611106910144673   0.625003132923693   1.0000000
B2   B   0.222163119212636   0.111073958373712   0.625028154000293   1.0000000
B2   B   0.722025278969788   0.611078835268944   0.624394062518931   1.0000000
B2   B   0.555577505827741   0.111073958373712   0.625028154000293   1.0000000
B2   B   0.888872397516011   0.111078128365365   0.625004128309251   1.0000000


