data_1
_audit_creation_method   'vasp2cif'
_cell_length_a    17.52789999999977
_cell_length_b    17.52789999999977
_cell_length_c    15.0
_cell_angle_alpha    90.0
_cell_angle_beta    90.0
_cell_angle_gamma    119.99999999999916

_symmetry_space_group_name_H-M    'P 1'
loop_
_atom_site_label
_atom_site_type_symbol
_atom_site_fract_x
_atom_site_fract_y
_atom_site_fract_z
_atom_site_occupancy
P2   P   0.493105893714130   0.506895508202866   0.111539804359452   1.0000000
B2   B   0.905713309893497   0.952937462428376   0.110998130197688   1.0000000
B2   B   0.904626192947278   0.095375828248718   0.111039535429388   1.0000000
B2   B   0.904361030528896   0.238284099380323   0.111052759347437   1.0000000
B2   B   0.904442012801255   0.381169383241642   0.111000795383216   1.0000000
B2   B   0.905169814211730   0.524034893699603   0.111028781336613   1.0000000
B2   B   0.906812949710015   0.667278514653205   0.111095981621736   1.0000000
B2   B   0.907323695849634   0.810888231407778   0.111059086030434   1.0000000
B2   B   0.048191418406442   0.951810602789562   0.111002255870037   1.0000000
B2   B   0.047064558767628   0.094288711302498   0.110998130197688   1.0000000
B2   B   0.046912409848386   0.237523545671206   0.110995995183541   1.0000000
B2   B   0.047381812955357   0.380683166789260   0.111001465508089   1.0000000
B2   B   0.048366171660716   0.523470686868169   0.111009375895182   1.0000000
B2   B   0.048891839329833   0.666306414839284   0.111065456145414   1.0000000
B2   B   0.048939063683978   0.809214041123659   0.111049061202811   1.0000000
B2   B   0.190787980072345   0.951062957512024   0.111049061202811   1.0000000
B2   B   0.189113789788225   0.092678325346362   0.111059086030434   1.0000000
B2   B   0.188352235096898   0.235463757891094   0.110993719699917   1.0000000
B2   B   0.189556334067821   0.379679163171742   0.110984096719326   1.0000000
B2   B   0.191786078498604   0.522857097805211   0.111000866206386   1.0000000
B2   B   0.191699856697987   0.665729292915206   0.111037988571249   1.0000000
B2   B   0.191455245334371   0.808546775861633   0.111010748165464   1.0000000
B2   B   0.333695606357715   0.951110181866170   0.111065456145414   1.0000000
B2   B   0.332723506543793   0.093189071485982   0.111095981621736   1.0000000
B2   B   0.329388885832123   0.232611205986646   0.111017213074863   1.0000000
B2   B   0.328966116989734   0.375993118779113   0.110978235590442   1.0000000
B2   B   0.335642039936401   0.522086859800871   0.111034192731603   1.0000000
B2   B   0.334798794664921   0.665203226532078   0.111072877730283   1.0000000
B2   B   0.334272728281792   0.808302164498017   0.111037988571249   1.0000000
B2   B   0.476531334328829   0.951635849535287   0.111009375895182   1.0000000
B2   B   0.475967127497396   0.094832206984266   0.111028781336613   1.0000000
B2   B   0.474726017454743   0.237473692819246   0.111018704459164   1.0000000
B2   B   0.466899609572541   0.373495046326290   0.111023907734710   1.0000000
B2   B   0.477915161396128   0.664359981260599   0.111034192731603   1.0000000
B2   B   0.477144923391788   0.808215942697400   0.111000866206386   1.0000000
B2   B   0.619318854406744   0.952620208240646   0.111001465508089   1.0000000
B2   B   0.618832637954362   0.095560008394742   0.111000795383216   1.0000000
B2   B   0.618367557477793   0.238821900753646   0.111015984946497   1.0000000
B2   B   0.617641571142658   0.382360450053347   0.111006534814191   1.0000000
B2   B   0.626506974869713   0.533102411624458   0.111023907734710   1.0000000
B2   B   0.624008902416892   0.671035904207264   0.110978235590442   1.0000000
B2   B   0.620322858024261   0.810445687128183   0.110984096719326   1.0000000
B2   B   0.762478475524797   0.953089611347617   0.110995995183541   1.0000000
B2   B   0.761717921815681   0.095640990667100   0.111052759347437   1.0000000
B2   B   0.761407725543553   0.238594295652451   0.111043730381683   1.0000000
B2   B   0.761180120442357   0.381634463718211   0.111015984946497   1.0000000
B2   B   0.762528328376757   0.525276003742255   0.111018704459164   1.0000000
B2   B   0.767390815209357   0.670613135364876   0.111017213074863   1.0000000
B2   B   0.764538263304909   0.811649786099105   0.110993719699917   1.0000000
N2   N   0.953462697653032   0.905305628361501   0.110991097783968   1.0000000
N2   N   0.952333236230873   0.047668165687134   0.110998536194305   1.0000000
N2   N   0.951988520150505   0.190528954691348   0.111021325141669   1.0000000
N2   N   0.952097895267130   0.333532676116925   0.111007343100333   1.0000000
N2   N   0.952640558437395   0.476306770416343   0.110981840735132   1.0000000
N2   N   0.953401714292126   0.619037507741450   0.111069540438367   1.0000000
N2   N   0.953779554548784   0.762157654220970   0.111066104433173   1.0000000
N2   N   0.095842603261116   0.904158798656882   0.111000478590765   1.0000000
N2   N   0.094695773556497   0.046538704264974   0.110991097783968   1.0000000
N2   N   0.094129701524471   0.189346491328193   0.110969677521098   1.0000000
N2   N   0.094895715444251   0.332862072988922   0.110974035169860   1.0000000
N2   N   0.096318575586479   0.475827490471513   0.110975846749984   1.0000000
N2   N   0.096405763146104   0.618511459341835   0.111025809724726   1.0000000
N2   N   0.096298090437654   0.761323251222223   0.111014761640139   1.0000000
N2   N   0.238678150695783   0.903703311480344   0.111014761640139   1.0000000
N2   N   0.237843747697036   0.046221847369221   0.111066104433173   1.0000000
N2   N   0.235698620138908   0.187546871888209   0.111013259481420   1.0000000
N2   N   0.235845846775072   0.330828262406251   0.110961460635371   1.0000000
N2   N   0.240218595491348   0.474983093367668   0.110979147946430   1.0000000
N2   N   0.239728974313578   0.617886860372907   0.111027855585600   1.0000000
N2   N   0.239194888515347   0.760806513402658   0.111019828540801   1.0000000
N2   N   0.381489942576163   0.903595638771895   0.111025809724726   1.0000000
N2   N   0.380963894176548   0.046599687625879   0.111069540438367   1.0000000
N2   N   0.379899841111635   0.188817529188063   0.111039218405874   1.0000000
N2   N   0.375337971173390   0.327741091753404   0.110953315990388   1.0000000
N2   N   0.382520433039289   0.471122267216378   0.110999160449274   1.0000000
N2   N   0.383200205168789   0.616801196749210   0.111064279465517   1.0000000
N2   N   0.382114541545092   0.760272427604428   0.111027855585600   1.0000000
N2   N   0.524173911445485   0.903682826331520   0.110975846749984   1.0000000
N2   N   0.523694631500654   0.047360843480611   0.110981840735132   1.0000000
N2   N   0.523094710686683   0.191038268981261   0.110998643853332   1.0000000
N2   N   0.521707127001494   0.335358125654357   0.111006537031044   1.0000000
N2   N   0.528879134700618   0.617480968878710   0.110999160449274   1.0000000
N2   N   0.525018308549328   0.759782806426656   0.110979147946430   1.0000000
N2   N   0.667139328928074   0.905105686473747   0.110974035169860   1.0000000
N2   N   0.666468725800072   0.047903506650876   0.111007343100333   1.0000000
N2   N   0.665994938858284   0.191256085596687   0.111010540829428   1.0000000
N2   N   0.665123415844254   0.334877986072743   0.110991171390380   1.0000000
N2   N   0.664643276262640   0.478294274915502   0.111006537031044   1.0000000
N2   N   0.672260310163593   0.624663430744609   0.110953315990388   1.0000000
N2   N   0.669173139510746   0.764155555142934   0.110961460635371   1.0000000
N2   N   0.810654910589805   0.905871700393527   0.110969677521098   1.0000000
N2   N   0.809472447226650   0.048012881767501   0.111021325141669   1.0000000
N2   N   0.809054880247710   0.190946521670288   0.111049424923867   1.0000000
N2   N   0.808745316321311   0.334006463058714   0.111010540829428   1.0000000
N2   N   0.808963132936738   0.476906691230314   0.110998643853332   1.0000000
N2   N   0.811183872729935   0.620101560806365   0.111039218405874   1.0000000
N2   N   0.812454530029791   0.764302781779097   0.111013259481420   1.0000000


