data_1
_audit_creation_method   'vasp2cif'
_cell_length_a    17.52789999999977
_cell_length_b    17.52789999999977
_cell_length_c    15.0
_cell_angle_alpha    90.0
_cell_angle_beta    90.0
_cell_angle_gamma    119.99999999999916

_symmetry_space_group_name_H-M    'P 1'
loop_
_atom_site_label
_atom_site_type_symbol
_atom_site_fract_x
_atom_site_fract_y
_atom_site_fract_z
_atom_site_occupancy
B2   B   0.905598265526323   0.953369554146734   0.110987124405458   1.0000000
B2   B   0.905647945938559   0.096325046083709   0.111038904867175   1.0000000
B2   B   0.905552307888754   0.239021784782314   0.111109274503481   1.0000000
B2   B   0.905242776410876   0.381485737154457   0.111000775629995   1.0000000
B2   B   0.904165017292802   0.523754722438877   0.110981690307470   1.0000000
B2   B   0.903821081879264   0.666254991968480   0.111054981234775   1.0000000
B2   B   0.904137672118338   0.809131819340532   0.111014361036391   1.0000000
B2   B   0.046954073488132   0.951469089819768   0.110975432545941   1.0000000
B2   B   0.047652199810011   0.094985501150938   0.110978700438507   1.0000000
B2   B   0.048286496197699   0.238473868025646   0.111013072217969   1.0000000
B2   B   0.048498589157820   0.381426007534364   0.111017433515391   1.0000000
B2   B   0.048149259650708   0.523805004401488   0.110977391154030   1.0000000
B2   B   0.047150373988550   0.666168009511185   0.110990924264681   1.0000000
B2   B   0.046863615280484   0.808686188803312   0.110967468288800   1.0000000
B2   B   0.189577943394680   0.950965670271922   0.111033283313571   1.0000000
B2   B   0.189371942547737   0.093299773913865   0.111064136633765   1.0000000
B2   B   0.189820339550279   0.236484813099551   0.111014482015975   1.0000000
B2   B   0.191295917322285   0.380875727364983   0.111025699816097   1.0000000
B2   B   0.192342739902744   0.523941628034736   0.111014975361257   1.0000000
B2   B   0.190559185606474   0.666393545104342   0.111065819126424   1.0000000
B2   B   0.189925011982264   0.808743201364459   0.110985990127407   1.0000000
B2   B   0.332786903200892   0.951446670470488   0.111036474844728   1.0000000
B2   B   0.332218982682583   0.092825814124157   0.111124312945682   1.0000000
B2   B   0.332209600499854   0.233803113974897   0.111010598070112   1.0000000
B2   B   0.331786836665587   0.376320401765317   0.111037192832317   1.0000000
B2   B   0.337379807022850   0.525210141181907   0.111075078944851   1.0000000
B2   B   0.333907518896516   0.667192506145316   0.111101989868907   1.0000000
B2   B   0.333181502695232   0.809528392557730   0.111074490285197   1.0000000
B2   B   0.476250677993971   0.953476530967266   0.110978570216808   1.0000000
B2   B   0.475873700879846   0.094644077407128   0.110992346815589   1.0000000
B2   B   0.474201029056073   0.235268422877311   0.110982130531021   1.0000000
B2   B   0.477259340917564   0.672999801471866   0.111016190483049   1.0000000
B2   B   0.476707068850040   0.812753870958180   0.111048773868605   1.0000000
B2   B   0.619925298551525   0.954590971339816   0.110989976233061   1.0000000
B2   B   0.619462576335574   0.096276682060545   0.110986224513154   1.0000000
B2   B   0.619071489695328   0.238269555647142   0.110978679318793   1.0000000
B2   B   0.619100698194343   0.381379105507171   0.110994509013397   1.0000000
B2   B   0.614870012052180   0.522887838635549   0.111154098599308   1.0000000
B2   B   0.622823046343088   0.672198852652515   0.111035097903830   1.0000000
B2   B   0.620808724335219   0.813269449941524   0.110992235620543   1.0000000
B2   B   0.763206287912181   0.954512073142569   0.110990864215897   1.0000000
B2   B   0.762773714041267   0.096709150446550   0.111074505123027   1.0000000
B2   B   0.762383686309470   0.238939989405126   0.111073489237797   1.0000000
B2   B   0.762006772911020   0.381316508132097   0.111001015507169   1.0000000
B2   B   0.760095370618556   0.523771263538964   0.111101928369575   1.0000000
B2   B   0.760433664627461   0.666272129803320   0.111117796947242   1.0000000
B2   B   0.763920839997125   0.812303726349371   0.111027882652241   1.0000000
N2   N   0.951933244748179   0.904408137729402   0.110964440120776   1.0000000
N2   N   0.952864216501946   0.048286870647851   0.110976813334491   1.0000000
N2   N   0.953207817082315   0.191437064994280   0.111051444402323   1.0000000
N2   N   0.953264277421767   0.334189208037783   0.111030619545464   1.0000000
N2   N   0.952635784981215   0.476580528939341   0.110937916991771   1.0000000
N2   N   0.951735794342963   0.618828976224433   0.110989448097202   1.0000000
N2   N   0.951567801538065   0.761316033227595   0.110991091480069   1.0000000
N2   N   0.094396026102048   0.903684170770455   0.110960952884573   1.0000000
N2   N   0.094417519750639   0.046531723923405   0.110974335944610   1.0000000
N2   N   0.095008787060218   0.190027515856841   0.110964804858011   1.0000000
N2   N   0.096162850906092   0.333864616134218   0.110992159306732   1.0000000
N2   N   0.096712812030153   0.476596384877702   0.110966885303876   1.0000000
N2   N   0.095293943867692   0.618856935008010   0.110998028684241   1.0000000
N2   N   0.094633848653241   0.761191902311742   0.110943845993902   1.0000000
N2   N   0.237460519980038   0.903699939168809   0.110990332858379   1.0000000
N2   N   0.237023481468285   0.045777267133939   0.111090392592177   1.0000000
N2   N   0.236462156457724   0.188052364135137   0.111036329573857   1.0000000
N2   N   0.236799305502980   0.331685453101407   0.111030015904684   1.0000000
N2   N   0.241285426306983   0.476533919371699   0.111012275591489   1.0000000
N2   N   0.238818701488877   0.619075660081570   0.111057136610535   1.0000000
N2   N   0.237882792993005   0.761461867098273   0.111040174419266   1.0000000
N2   N   0.380856277430367   0.904604112275683   0.111002888372138   1.0000000
N2   N   0.380483774183244   0.046246997411472   0.111045938579724   1.0000000
N2   N   0.379631759667286   0.187155448344315   0.111068664938118   1.0000000
N2   N   0.371762196854975   0.325639665138441   0.110832284180809   1.0000000
N2   N   0.379959242560029   0.470586440190735   0.111097705604339   1.0000000
N2   N   0.382384342465691   0.620007916209468   0.111042567619069   1.0000000
N2   N   0.381241200262008   0.762545502769836   0.111084593986046   1.0000000
N2   N   0.524551893623969   0.907232255607375   0.110983979768228   1.0000000
N2   N   0.524145896086627   0.048204712336077   0.110931181875410   1.0000000
N2   N   0.523844090829695   0.189347051606689   0.110963743004995   1.0000000
N2   N   0.527703590294021   0.327172984665638   0.110791414903010   1.0000000
N2   N   0.514861988480897   0.464766358255616   0.111180087990905   1.0000000
N2   N   0.533058748417177   0.638970781469903   0.110934923734004   1.0000000
N2   N   0.525443506854929   0.767597644375036   0.110994546170521   1.0000000
N2   N   0.668209270393014   0.907852501544488   0.110965497365805   1.0000000
N2   N   0.667590368447348   0.049380366919476   0.110995542544744   1.0000000
N2   N   0.667215177347851   0.191257179338496   0.111000598463426   1.0000000
N2   N   0.667197853188737   0.333574663396436   0.110972349775773   1.0000000
N2   N   0.663999757473562   0.476722194034286   0.111109450808586   1.0000000
N2   N   0.664111362444786   0.618319135490286   0.111095379190247   1.0000000
N2   N   0.669990811098052   0.767051089724070   0.110991539673754   1.0000000
N2   N   0.810983848697790   0.906957227810377   0.110972965613143   1.0000000
N2   N   0.810632133667243   0.049378620718120   0.111025692628440   1.0000000
N2   N   0.810388035190157   0.191726242262492   0.111107112567845   1.0000000
N2   N   0.810049718978263   0.334095227271399   0.111007017585579   1.0000000
N2   N   0.808603939305254   0.476566634842769   0.110997350063659   1.0000000
N2   N   0.808162783045469   0.618863434389772   0.111099065396197   1.0000000
N2   N   0.808895528262533   0.761857525223780   0.111044404810913   1.0000000
O2   O   0.473108542955506   0.510135267628128   0.111289540841710   1.0000000


