data_1
_audit_creation_method   'vasp2cif'
_cell_length_a    17.52789999999977
_cell_length_b    17.52789999999977
_cell_length_c    15.0
_cell_angle_alpha    90.0
_cell_angle_beta    90.0
_cell_angle_gamma    119.99999999999916

_symmetry_space_group_name_H-M    'P 1'
loop_
_atom_site_label
_atom_site_type_symbol
_atom_site_fract_x
_atom_site_fract_y
_atom_site_fract_z
_atom_site_occupancy
B2   B   0.905680557359873   0.953903546870554   0.111016192702698   1.0000000
B2   B   0.904097012355607   0.095905008840382   0.111008000990251   1.0000000
B2   B   0.903550132500205   0.238563708948524   0.111048462569224   1.0000000
B2   B   0.903568200289839   0.381358233394453   0.110969576777450   1.0000000
B2   B   0.905009049705415   0.524379377528851   0.110984633576621   1.0000000
B2   B   0.906726563847361   0.667902661809599   0.111074246934916   1.0000000
B2   B   0.907549766765420   0.811974543491526   0.111044846155759   1.0000000
B2   B   0.047805164711417   0.952196856484587   0.110984613761382   1.0000000
B2   B   0.046098474325450   0.094321463836123   0.111016192702698   1.0000000
B2   B   0.045631943920594   0.237560512334721   0.111000998569628   1.0000000
B2   B   0.045994527373917   0.380769162974842   0.110987020611363   1.0000000
B2   B   0.047267726042597   0.523739359023361   0.110991753155907   1.0000000
B2   B   0.048510222621332   0.666678691790931   0.111028862764657   1.0000000
B2   B   0.048675344385184   0.809660759481891   0.111001142833931   1.0000000
B2   B   0.190341261714112   0.951326676810812   0.111001142833931   1.0000000
B2   B   0.188027477704477   0.092452254430576   0.111044846155759   1.0000000
B2   B   0.186185652291719   0.234656353870613   0.111009295139045   1.0000000
B2   B   0.187564554508114   0.379535045796949   0.111020740731917   1.0000000
B2   B   0.189619506628785   0.523059078677388   0.111075826958593   1.0000000
B2   B   0.191243584160124   0.666109665041462   0.111064598187771   1.0000000
B2   B   0.191067710901175   0.808934310294828   0.110992270782041   1.0000000
B2   B   0.333323329406061   0.951491798574671   0.111028862764657   1.0000000
B2   B   0.332099359387399   0.093275457348643   0.111074246934916   1.0000000
B2   B   0.327452192490505   0.231936096184072   0.110980470040871   1.0000000
B2   B   0.325702934495463   0.375730313398992   0.110985570614973   1.0000000
B2   B   0.332282107281975   0.520642580141985   0.111071288699615   1.0000000
B2   B   0.334708414456263   0.665293606740735   0.111113000215898   1.0000000
B2   B   0.333892356155536   0.808758437035886   0.111064598187771   1.0000000
B2   B   0.476262662173638   0.952734295153406   0.110991753155907   1.0000000
B2   B   0.475622643668154   0.094992971490581   0.110984633576621   1.0000000
B2   B   0.474156587273759   0.236554736298558   0.110978759780866   1.0000000
B2   B   0.464926929105805   0.370699137141543   0.111210112940172   1.0000000
B2   B   0.479359441055013   0.667719913915023   0.111071288699615   1.0000000
B2   B   0.476942942519609   0.810382514567212   0.111075826958593   1.0000000
B2   B   0.619232858221168   0.954007493822079   0.110987020611363   1.0000000
B2   B   0.618643787801551   0.096433820906158   0.110969576777450   1.0000000
B2   B   0.617961169403280   0.239355397205712   0.111019292899963   1.0000000
B2   B   0.616872808903305   0.383129212292698   0.111011751289304   1.0000000
B2   B   0.629302884054461   0.535075092091201   0.111210112940172   1.0000000
B2   B   0.624271707797011   0.674299086701536   0.110985570614973   1.0000000
B2   B   0.620466975399054   0.812437466687890   0.111020740731917   1.0000000
B2   B   0.762441508861289   0.954370077275410   0.111000998569628   1.0000000
B2   B   0.761438312247480   0.096451888695799   0.111048462569224   1.0000000
B2   B   0.760922787232613   0.239079233963391   0.111060821491113   1.0000000
B2   B   0.760646623990291   0.382040851792724   0.111019292899963   1.0000000
B2   B   0.763447284897446   0.525845433923239   0.110978759780866   1.0000000
B2   B   0.768065925011932   0.672549828706492   0.110980470040871   1.0000000
B2   B   0.765345667325391   0.813816368904285   0.111009295139045   1.0000000
N2   N   0.953665615159901   0.906395065805864   0.110996968470687   1.0000000
N2   N   0.951731504468424   0.048269897449582   0.110992184790952   1.0000000
N2   N   0.950756206738682   0.190670451964647   0.111011463700571   1.0000000
N2   N   0.950763837595563   0.333514431977423   0.110979030581525   1.0000000
N2   N   0.951982206647511   0.476434922978993   0.110939032181297   1.0000000
N2   N   0.953529368050512   0.619575715593061   0.111025045499625   1.0000000
N2   N   0.954166667752774   0.763097233728668   0.111040016953501   1.0000000
N2   N   0.095518372194357   0.904483029723641   0.110948672051012   1.0000000
N2   N   0.093606336112135   0.046335786758105   0.110996968470687   1.0000000
N2   N   0.091778539662553   0.188472167833866   0.111000491118989   1.0000000
N2   N   0.092313766878062   0.332361619763899   0.110974179040522   1.0000000
N2   N   0.093992760593779   0.475854395289991   0.110996611782643   1.0000000
N2   N   0.095696971589839   0.618926818093775   0.111013364112590   1.0000000
N2   N   0.096018806226878   0.761803664110038   0.110975394796929   1.0000000
N2   N   0.238197737807968   0.903982595691121   0.110975394796929   1.0000000
N2   N   0.236904168189338   0.045834734165231   0.111040016953501   1.0000000
N2   N   0.233120245938710   0.185932881457411   0.111008186492130   1.0000000
N2   N   0.231093933477540   0.328205371332514   0.110994363607279   1.0000000
N2   N   0.235277021218592   0.474748580817653   0.111061835912256   1.0000000
N2   N   0.238466108996881   0.618547185274056   0.111082712383398   1.0000000
N2   N   0.238558040725118   0.761443361192886   0.111030043278157   1.0000000
N2   N   0.381074583824223   0.904304430328159   0.111013364112590   1.0000000
N2   N   0.380425686324944   0.046472033867494   0.111025045499625   1.0000000
N2   N   0.378542247026096   0.187522859909090   0.111012035267349   1.0000000
N2   N   0.371639710439760   0.324335073706842   0.110959030655648   1.0000000
N2   N   0.369500474284233   0.466776444083795   0.110929280127790   1.0000000
N2   N   0.382088236652030   0.617913165265969   0.111083795034458   1.0000000
N2   N   0.381454216643943   0.761535292921124   0.111082712383398   1.0000000
N2   N   0.524147006627005   0.906008641324220   0.110996611782643   1.0000000
N2   N   0.523566478938003   0.048019195270495   0.110939032181297   1.0000000
N2   N   0.522755276353302   0.189991790646255   0.110975491064000   1.0000000
N2   N   0.520540613376533   0.331445024819753   0.110963234272590   1.0000000
N2   N   0.533224957833201   0.630500927633766   0.110929280127790   1.0000000
N2   N   0.525252821099344   0.764724380699414   0.111061835912256   1.0000000
N2   N   0.667639782153098   0.907687635039937   0.110974179040522   1.0000000
N2   N   0.666486969939574   0.049237564322442   0.110979030581525   1.0000000
N2   N   0.665838808132878   0.191731573448133   0.110999333622159   1.0000000
N2   N   0.665085484007247   0.334915917909750   0.111008604658073   1.0000000
N2   N   0.668556377097243   0.479460788540464   0.110963234272590   1.0000000
N2   N   0.675666328210154   0.628361691478245   0.110959030655648   1.0000000
N2   N   0.671796030584482   0.768907468440466   0.110994363607279   1.0000000
N2   N   0.811529234084133   0.908222862255447   0.111000491118989   1.0000000
N2   N   0.809330949953351   0.049245195179323   0.111011463700571   1.0000000
N2   N   0.808536647481221   0.191464754436777   0.111060289350730   1.0000000
N2   N   0.808269828469866   0.334162593784119   0.110999333622159   1.0000000
N2   N   0.810009611271744   0.477246125563696   0.110975491064000   1.0000000
N2   N   0.812478542008909   0.621459154891902   0.111012035267349   1.0000000
N2   N   0.814068520460587   0.766881155979296   0.111008186492130   1.0000000
As2   As   0.503623093087637   0.496378928109362   0.111648517405773   1.0000000


