data_1
_audit_creation_method   'vasp2cif'
_cell_length_a    17.52789999999977
_cell_length_b    17.52789999999977
_cell_length_c    15.0
_cell_angle_alpha    90.0
_cell_angle_beta    90.0
_cell_angle_gamma    119.99999999999916

_symmetry_space_group_name_H-M    'P 1'
loop_
_atom_site_label
_atom_site_type_symbol
_atom_site_fract_x
_atom_site_fract_y
_atom_site_fract_z
_atom_site_occupancy
B2   B   0.905494695839351   0.954632947041533   0.104826337021585   1.0000000
B2   B   0.903615152744154   0.096265013995187   0.111008733590962   1.0000000
B2   B   0.902971847400213   0.238719711285321   0.112735362590172   1.0000000
B2   B   0.903160475468493   0.381491667283765   0.109802513857043   1.0000000
B2   B   0.904143018754046   0.524468388506982   0.108381867996460   1.0000000
B2   B   0.904936272562117   0.668084168472759   0.109561130378696   1.0000000
B2   B   0.906754959040309   0.812320896001008   0.104923286107815   1.0000000
B2   B   0.047247864146765   0.952303342697480   0.110369687496765   1.0000000
B2   B   0.045686496928190   0.094541297321599   0.116389495663549   1.0000000
B2   B   0.045182131016493   0.237796648350889   0.117175964213169   1.0000000
B2   B   0.045606111031652   0.380966882820237   0.111774598161116   1.0000000
B2   B   0.046603595531071   0.523707121229635   0.106632791774360   1.0000000
B2   B   0.047224701618870   0.666396497783886   0.105414977890124   1.0000000
B2   B   0.047496046405617   0.809248839770286   0.107121226677083   1.0000000
B2   B   0.189055481922155   0.950323333369070   0.113769503445726   1.0000000
B2   B   0.187584584737924   0.092299917496265   0.119673420785550   1.0000000
B2   B   0.185834631333354   0.234676183329738   0.120084134160311   1.0000000
B2   B   0.187161668304321   0.379630539881576   0.113623809145739   1.0000000
B2   B   0.189299686078126   0.522992733485482   0.106982660886176   1.0000000
B2   B   0.190296665146871   0.665601904312102   0.104761203108965   1.0000000
B2   B   0.189839432366327   0.808049626718586   0.107852979144882   1.0000000
B2   B   0.331823184373226   0.949901873985206   0.112490956732609   1.0000000
B2   B   0.330373382577479   0.091442868688365   0.117230660317168   1.0000000
B2   B   0.327490015941535   0.231738768594559   0.117137090677529   1.0000000
B2   B   0.324825788516012   0.375014969831792   0.111023545684603   1.0000000
B2   B   0.331863838210361   0.521396202330318   0.106336400207681   1.0000000
B2   B   0.334070588942692   0.665000976699774   0.104191770794323   1.0000000
B2   B   0.332771552545173   0.807699151721479   0.106545603257438   1.0000000
B2   B   0.474876603206249   0.950958130980520   0.108644584874810   1.0000000
B2   B   0.473729369642562   0.092635495091821   0.112852208663817   1.0000000
B2   B   0.471477754021982   0.233258076775010   0.111456115111483   1.0000000
B2   B   0.465335888145722   0.369668560622791   0.107294001326882   1.0000000
B2   B   0.478994184058283   0.666673643222605   0.108279468829570   1.0000000
B2   B   0.476052646862885   0.808937290881295   0.104184353258789   1.0000000
B2   B   0.618209534424233   0.953246117861201   0.104401963252059   1.0000000
B2   B   0.617191163314003   0.094506231137146   0.109739169873686   1.0000000
B2   B   0.616064505915190   0.235473479397292   0.109911079725523   1.0000000
B2   B   0.612742531078318   0.373265810078633   0.108916991611578   1.0000000
B2   B   0.626677506781276   0.677864298251742   0.129176620808096   1.0000000
B2   B   0.619918397850844   0.812738632664813   0.103419039886266   1.0000000
B2   B   0.761974676132763   0.954880921329633   0.102544521701329   1.0000000
B2   B   0.760585047559433   0.096210230655407   0.108680867500303   1.0000000
B2   B   0.759907358716151   0.238240356444243   0.110436570119314   1.0000000
B2   B   0.760070877661708   0.381103396964087   0.109965264608649   1.0000000
B2   B   0.765012794644172   0.527757456372703   0.117413339949962   1.0000000
B2   B   0.765951261309815   0.674531936586246   0.127609549039974   1.0000000
B2   B   0.765218765275654   0.815106379353517   0.105345471517495   1.0000000
Ga2   Ga   0.491973185623252   0.508216756374478   0.111044397037611   1.0000000
N2   N   0.953025479357351   0.906612528490704   0.104471630024755   1.0000000
N2   N   0.951515357220623   0.048803768197992   0.110710499047823   1.0000000
N2   N   0.950404077349124   0.191110769256235   0.114725949117237   1.0000000
N2   N   0.950258145423599   0.333865750125723   0.111793948444376   1.0000000
N2   N   0.950762850421108   0.476501136484456   0.107691410899939   1.0000000
N2   N   0.951113441488200   0.619189607831909   0.106789712860954   1.0000000
N2   N   0.952362661603177   0.762541260147744   0.106417715365582   1.0000000
N2   N   0.094373546972266   0.904014113023550   0.110143008313532   1.0000000
N2   N   0.093396568597702   0.046685921184878   0.116709628342075   1.0000000
N2   N   0.091935488151770   0.189068064063781   0.120144005461295   1.0000000
N2   N   0.092455689622674   0.332827643116592   0.115226666808764   1.0000000
N2   N   0.093771238220021   0.475927001444902   0.108206163215084   1.0000000
N2   N   0.094519674532526   0.618575584333078   0.104863448994931   1.0000000
N2   N   0.094565326877981   0.761152685812971   0.106276278849045   1.0000000
N2   N   0.236895845023975   0.903004193158433   0.111733758200781   1.0000000
N2   N   0.235887245267816   0.045259290787019   0.118453681696895   1.0000000
N2   N   0.234009675214878   0.187064159019956   0.121373356218331   1.0000000
N2   N   0.231969358740105   0.328991083461244   0.116431401734115   1.0000000
N2   N   0.236138709745752   0.474729772387043   0.108757798295115   1.0000000
N2   N   0.238193149271683   0.618019978193843   0.104456609148376   1.0000000
N2   N   0.237540143848823   0.760570950108018   0.106002494185646   1.0000000
N2   N   0.379862440533459   0.902996046385311   0.109420503473293   1.0000000
N2   N   0.378974045586860   0.045255392048521   0.115128945293732   1.0000000
N2   N   0.377441979313863   0.186899381503717   0.116135907699021   1.0000000
N2   N   0.373964129978894   0.327057276300510   0.111849245549753   1.0000000
N2   N   0.371954059844995   0.467277843440554   0.105435044968434   1.0000000
N2   N   0.382587401102425   0.617169246284809   0.104904900638938   1.0000000
N2   N   0.380826313808576   0.760392648160437   0.104482040272160   1.0000000
N2   N   0.523081586572166   0.904356861879781   0.105246347920005   1.0000000
N2   N   0.522132515701598   0.046486278939515   0.110785748873443   1.0000000
N2   N   0.521105257836412   0.188578133070994   0.111462299785605   1.0000000
N2   N   0.519019155992487   0.330369402969217   0.107393616679592   1.0000000
N2   N   0.619139162387746   0.511434246866630   0.124216161640687   1.0000000
N2   N   0.533676938442337   0.626395008277096   0.119263874561793   1.0000000
N2   N   0.524648643632963   0.762348860383160   0.104295609172339   1.0000000
N2   N   0.666865244831669   0.907294494522563   0.101075421896344   1.0000000
N2   N   0.665456429756281   0.048306282381133   0.107565859516605   1.0000000
N2   N   0.664544797992148   0.190045676271847   0.110314391339627   1.0000000
N2   N   0.663495174887441   0.331896769973452   0.108824525340580   1.0000000
N2   N   0.661952515747233   0.473603995103987   0.117304727508995   1.0000000
N2   N   0.680484424257870   0.643701523332112   0.158557807764725   1.0000000
N2   N   0.671029272633632   0.769416725575033   0.108796268612490   1.0000000
N2   N   0.811118072424055   0.908762845899570   0.100758041146439   1.0000000
N2   N   0.808773866742781   0.049471681949888   0.107019108103066   1.0000000
N2   N   0.807720958181805   0.191458472299964   0.111077932382359   1.0000000
N2   N   0.807144861462347   0.334077932953123   0.109925469925388   1.0000000
N2   N   0.807394328777561   0.476920374983525   0.111265879280429   1.0000000
N2   N   0.808498710300554   0.620843774111421   0.118420778105645   1.0000000
N2   N   0.812671383157461   0.766954946929692   0.107492933181104   1.0000000


