data_1
_audit_creation_method   'vasp2cif'
_cell_length_a    17.52789999999977
_cell_length_b    17.52789999999977
_cell_length_c    15.0
_cell_angle_alpha    90.0
_cell_angle_beta    90.0
_cell_angle_gamma    119.99999999999916

_symmetry_space_group_name_H-M    'P 1'
loop_
_atom_site_label
_atom_site_type_symbol
_atom_site_fract_x
_atom_site_fract_y
_atom_site_fract_z
_atom_site_occupancy
B2   B   0.906199098769413   0.953530307241314   0.111033663823026   1.0000000
B2   B   0.904687521835633   0.095314224856367   0.111042599123153   1.0000000
B2   B   0.904214475207484   0.237817790749366   0.111048946282036   1.0000000
B2   B   0.904677538898570   0.380787851084358   0.110982706185040   1.0000000
B2   B   0.906194553099563   0.524080023588898   0.111019145594168   1.0000000
B2   B   0.905745792157828   0.667191594657545   0.111092561170139   1.0000000
B2   B   0.905756776132373   0.809985424189175   0.111075657381731   1.0000000
B2   B   0.047822009802343   0.952179713562651   0.110980653526951   1.0000000
B2   B   0.046471408100685   0.093802621702594   0.111033663350025   1.0000000
B2   B   0.045696347950710   0.236700818077439   0.111032638807518   1.0000000
B2   B   0.045675758977319   0.380404035237236   0.111040476063999   1.0000000
B2   B   0.046451720502162   0.524089577726195   0.111000309415848   1.0000000
B2   B   0.047828331786260   0.667082346837862   0.111007304576390   1.0000000
B2   B   0.047973292428119   0.809709671763448   0.110981893594640   1.0000000
B2   B   0.190292077929550   0.952028470664890   0.110981892068643   1.0000000
B2   B   0.190016276846822   0.094244936575632   0.111075653257734   1.0000000
B2   B   0.186026332896610   0.233470560357363   0.111142784883342   1.0000000
B2   B   0.185912156109469   0.378659442125898   0.111132266306803   1.0000000
B2   B   0.186003228580122   0.523952199548206   0.111159115274338   1.0000000
B2   B   0.190009393285973   0.667186819993381   0.111086717926118   1.0000000
B2   B   0.190298882060731   0.809702812480266   0.110986418297496   1.0000000
B2   B   0.332919388867136   0.952173392047742   0.111007306990387   1.0000000
B2   B   0.332810119319457   0.094255947762175   0.111092556793138   1.0000000
B2   B   0.332738820431036   0.236887623575993   0.111111852433422   1.0000000
B2   B   0.323182322704331   0.372666941217842   0.110904165602509   1.0000000
B2   B   0.323176161022914   0.521960179172568   0.110912918262349   1.0000000
B2   B   0.332718402423223   0.667283300350776   0.111124274857966   1.0000000
B2   B   0.332814833326619   0.809992235557021   0.111086721459121   1.0000000
B2   B   0.475912109692805   0.953549860427834   0.111000314726850   1.0000000
B2   B   0.475921717917105   0.093807269576435   0.111019154287168   1.0000000
B2   B   0.476046904598541   0.233479009713117   0.111104897447431   1.0000000
B2   B   0.478034562418406   0.372674946289281   0.110992650894657   1.0000000
B2   B   0.478041605260428   0.676825696317090   0.110912918776356   1.0000000
B2   B   0.476049516241790   0.813998458487878   0.111159121011339   1.0000000
B2   B   0.619597703734773   0.954325925439682   0.111040478171000   1.0000000
B2   B   0.619213819263642   0.095324148383432   0.110982707271041   1.0000000
B2   B   0.619607153437426   0.236706129566598   0.111016820336517   1.0000000
B2   B   0.621327866230701   0.378673867978300   0.111109386369805   1.0000000
B2   B   0.627326622680719   0.521967104784598   0.110992645636655   1.0000000
B2   B   0.627334708237152   0.676819401011664   0.110904165315506   1.0000000
B2   B   0.621342301034100   0.814089613293530   0.111132261958800   1.0000000
B2   B   0.763300922450561   0.954305371576289   0.111032641033514   1.0000000
B2   B   0.762183905011635   0.095787201326514   0.111048948685035   1.0000000
B2   B   0.762190385955122   0.237811319224876   0.111054057607345   1.0000000
B2   B   0.763295692817403   0.380394601993573   0.111016811929517   1.0000000
B2   B   0.766522742462881   0.523954778208470   0.111104889483434   1.0000000
B2   B   0.763114035195007   0.667262860113962   0.111111861061422   1.0000000
B2   B   0.766531111066640   0.813975383785390   0.111142787357338   1.0000000
Sn2   Sn   0.476174290079924   0.523827365467072   0.110466384734777   1.0000000
N2   N   0.953063142718471   0.905158788439979   0.110993065463292   1.0000000
N2   N   0.952259181900795   0.047742535409204   0.111013953555340   1.0000000
N2   N   0.951208677659579   0.189924411887266   0.111014012126765   1.0000000
N2   N   0.951196669705027   0.332698842736311   0.110983861194437   1.0000000
N2   N   0.952249187054021   0.475930766032590   0.110955724858643   1.0000000
N2   N   0.953062168803322   0.619328717175933   0.111027542774202   1.0000000
N2   N   0.953241439352051   0.762335498261785   0.111038559142791   1.0000000
N2   N   0.095354583476395   0.904647168991606   0.110932007194503   1.0000000
N2   N   0.094842916998023   0.046938576096529   0.110993071960289   1.0000000
N2   N   0.091933766159671   0.187696100605994   0.111046504102774   1.0000000
N2   N   0.091656761617907   0.331539234062016   0.111043850928296   1.0000000
N2   N   0.091911523977679   0.475650039409803   0.111056331899800   1.0000000
N2   N   0.094834835971594   0.619330358150983   0.110983362274801   1.0000000
N2   N   0.095355684812062   0.762149400052942   0.110958485423475   1.0000000
N2   N   0.237852312108059   0.904646025945938   0.110958486315476   1.0000000
N2   N   0.237666231115220   0.046760329611945   0.111038551719794   1.0000000
N2   N   0.236866376154592   0.188769809259582   0.111127038343962   1.0000000
N2   N   0.229544081554284   0.326405206071838   0.111173524633055   1.0000000
N2   N   0.229542039057682   0.474553119508867   0.111186610267853   1.0000000
N2   N   0.236850588294825   0.619504347727920   0.111147983599277   1.0000000
N2   N   0.237664324294763   0.762337309900232   0.111046535252208   1.0000000
N2   N   0.380671312952018   0.905166789811406   0.110983366424804   1.0000000
N2   N   0.380673010011063   0.046939582116678   0.111027550522202   1.0000000
N2   N   0.380500662241018   0.188779613463370   0.111117590682030   1.0000000
N2   N   0.380217622813607   0.331883902217781   0.110935025936638   1.0000000
N2   N   0.353704797889790   0.462574643449144   0.110407402509235   1.0000000
N2   N   0.380216347901788   0.619785450057211   0.110910282485062   1.0000000
N2   N   0.380497390761078   0.763151118585174   0.111147988220278   1.0000000
N2   N   0.524351692818198   0.908090071538318   0.111056345677799   1.0000000
N2   N   0.524070892316409   0.047752474705981   0.110955725303649   1.0000000
N2   N   0.524363867836537   0.187711869291395   0.111011738500684   1.0000000
N2   N   0.525425286642527   0.326414055497373   0.111150738376496   1.0000000
N2   N   0.537409223468455   0.462592373156554   0.110735877954080   1.0000000
N2   N   0.537427015833860   0.646296884249210   0.110407404087237   1.0000000
N2   N   0.525448663104141   0.770459817270322   0.111186607451852   1.0000000
N2   N   0.668462556549979   0.908344985855093   0.111043848715296   1.0000000
N2   N   0.667302826994681   0.048804984543978   0.110983859726441   1.0000000
N2   N   0.667305752339134   0.189924701067546   0.110993835721765   1.0000000
N2   N   0.668459341262706   0.331542469286295   0.111021074535110   1.0000000
N2   N   0.673587608634619   0.474576429367472   0.111150717977496   1.0000000
N2   N   0.668117728426219   0.619784071731391   0.110935028571636   1.0000000
N2   N   0.673596460382160   0.770457675913714   0.111173517502055   1.0000000
N2   N   0.812305611910009   0.908067948874333   0.111046504478779   1.0000000
N2   N   0.810077313389737   0.048793031413418   0.111014021813765   1.0000000
N2   N   0.809530669744940   0.190470984947060   0.111071912944565   1.0000000
N2   N   0.810077037040453   0.332695932821868   0.110993829781770   1.0000000
N2   N   0.812290022263610   0.475637886613467   0.111011717989681   1.0000000
N2   N   0.811222107903631   0.619501041805981   0.111117606035033   1.0000000
N2   N   0.811231852834420   0.763135315629414   0.111127049639957   1.0000000


