data_1
_audit_creation_method   'vasp2cif'
_cell_length_a    17.52789999999977
_cell_length_b    17.52789999999977
_cell_length_c    15.0
_cell_angle_alpha    90.0
_cell_angle_beta    90.0
_cell_angle_gamma    119.99999999999916

_symmetry_space_group_name_H-M    'P 1'
loop_
_atom_site_label
_atom_site_type_symbol
_atom_site_fract_x
_atom_site_fract_y
_atom_site_fract_z
_atom_site_occupancy
B2   B   0.904986678593884   0.952641855283986   0.111044393263889   1.0000000
B2   B   0.904624130175752   0.095326482543097   0.111074819347660   1.0000000
B2   B   0.904618472742340   0.238118972728154   0.111090203292074   1.0000000
B2   B   0.904761353876325   0.381024052222305   0.111039952796422   1.0000000
B2   B   0.905419069499904   0.523985299659993   0.111056304458000   1.0000000
B2   B   0.906323638163597   0.667279426989296   0.111128606905732   1.0000000
B2   B   0.906113528222834   0.810489530832589   0.111093984433179   1.0000000
B2   B   0.047696074066614   0.952311945830387   0.111042090111062   1.0000000
B2   B   0.047116125618563   0.094846890195584   0.111039183980652   1.0000000
B2   B   0.047345416477572   0.238117596977123   0.111033004129163   1.0000000
B2   B   0.047288687316074   0.381039182260492   0.111062023689973   1.0000000
B2   B   0.047842997459256   0.523879173693138   0.111050096580886   1.0000000
B2   B   0.048091462590050   0.666888436132195   0.111081823621055   1.0000000
B2   B   0.048176153696166   0.809774017454718   0.111063234280776   1.0000000
B2   B   0.190384275307201   0.951977720232596   0.111047360417675   1.0000000
B2   B   0.189404699953162   0.093730619267219   0.111085874299428   1.0000000
B2   B   0.189874251636324   0.236619790428899   0.110972392139519   1.0000000
B2   B   0.190458061559937   0.382083399267178   0.110983096051657   1.0000000
B2   B   0.190652140379071   0.523994774513918   0.111130569360638   1.0000000
B2   B   0.190189924725744   0.666939854666541   0.111117731990497   1.0000000
B2   B   0.190546935350638   0.809629590820609   0.111042916122196   1.0000000
B2   B   0.333254220824348   0.952182540668938   0.111059662722630   1.0000000
B2   B   0.332898897549499   0.093970485696272   0.111123129525818   1.0000000
B2   B   0.330079163535692   0.233976536843958   0.111046312608661   1.0000000
B2   B   0.334180836589530   0.524269718856398   0.110982945193849   1.0000000
B2   B   0.332332595349332   0.667549820427995   0.111136982442167   1.0000000
B2   B   0.333179352071790   0.809970245747789   0.111100972026067   1.0000000
B2   B   0.476191607274698   0.952701322722928   0.111046764612124   1.0000000
B2   B   0.476208294648795   0.094901652082738   0.111043915264490   1.0000000
B2   B   0.476047109702292   0.236958970295978   0.111088695060912   1.0000000
B2   B   0.473141564566981   0.376313948819982   0.110803382656224   1.0000000
B2   B   0.474540683985558   0.668156496173946   0.110832074401095   1.0000000
B2   B   0.476116239252203   0.810483102534370   0.111091386585231   1.0000000
B2   B   0.619057324017489   0.952608086032793   0.111048014182335   1.0000000
B2   B   0.619099324438587   0.095348738484369   0.111032893800195   1.0000000
B2   B   0.619041326392628   0.238033878840550   0.111047283870274   1.0000000
B2   B   0.619142729807802   0.381054580219960   0.111002654161597   1.0000000
B2   B   0.624559169708080   0.528389182212605   0.110834471637201   1.0000000
B2   B   0.621739156733316   0.667092210173860   0.110803795951596   1.0000000
B2   B   0.618882325774764   0.809624528369971   0.110998536277428   1.0000000
B2   B   0.761960378168436   0.952551110128824   0.111039810741378   1.0000000
B2   B   0.761867913405497   0.095348747628046   0.111087614706252   1.0000000
B2   B   0.761899564529154   0.238164672589594   0.111091330187775   1.0000000
B2   B   0.762191606061475   0.381155467341219   0.111051404785808   1.0000000
B2   B   0.763479082252954   0.524516111940102   0.111075087751164   1.0000000
B2   B   0.765673965040378   0.668849505556857   0.111073298841897   1.0000000
B2   B   0.762891370833429   0.810257736871562   0.111053210857457   1.0000000
C2   C   0.471526227834354   0.524345925700553   0.110604897657284   1.0000000
C2   C   0.520534837625437   0.478526898927402   0.110548021352403   1.0000000
C2   C   0.521965484222524   0.616706472847605   0.110456301081975   1.0000000
N2   N   0.952793106784453   0.905176474173710   0.111040682220457   1.0000000
N2   N   0.952018715084000   0.047520776684357   0.111034511055366   1.0000000
N2   N   0.951964497804228   0.190411876268416   0.111059459847171   1.0000000
N2   N   0.952055024326330   0.333349690113367   0.111044285305945   1.0000000
N2   N   0.952625228885854   0.476244855273996   0.110999123576529   1.0000000
N2   N   0.953104605355145   0.619212007125661   0.111077229479750   1.0000000
N2   N   0.953204256335688   0.762336278318750   0.111096642287079   1.0000000
N2   N   0.095347104914073   0.904689930072831   0.111017324622729   1.0000000
N2   N   0.094563954654738   0.046927398925635   0.111034364715179   1.0000000
N2   N   0.093968299964182   0.189581718355997   0.111001607312645   1.0000000
N2   N   0.094308868460400   0.333388731000365   0.111020886369474   1.0000000
N2   N   0.095308526683255   0.476369149258000   0.111063698922562   1.0000000
N2   N   0.095258946507076   0.619146578493623   0.111062063397793   1.0000000
N2   N   0.095507094935010   0.762009926856256   0.111042338412657   1.0000000
N2   N   0.238117530166902   0.904620706103856   0.111018478996859   1.0000000
N2   N   0.237763621674235   0.046800560964840   0.111086756355499   1.0000000
N2   N   0.236244721895891   0.188003119664664   0.111045324128380   1.0000000
N2   N   0.228579434046098   0.328572647544065   0.110802172172927   1.0000000
N2   N   0.238704786059544   0.477171851235595   0.111062691306296   1.0000000
N2   N   0.237592229114940   0.619397824323018   0.111138021605469   1.0000000
N2   N   0.238046228252033   0.762097301042284   0.111069444815487   1.0000000
N2   N   0.380990893841999   0.904956708260414   0.111050890137357   1.0000000
N2   N   0.380991134061713   0.047114416004323   0.111059249693273   1.0000000
N2   N   0.380686575644702   0.188850036184113   0.111106585788614   1.0000000
N2   N   0.383136621159325   0.326242009691142   0.110893781974628   1.0000000
N2   N   0.383155247008651   0.479326501713899   0.110826635932567   1.0000000
N2   N   0.379970901404503   0.620109838830964   0.111025977821772   1.0000000
N2   N   0.380784287730245   0.762604711060875   0.111109411777520   1.0000000
N2   N   0.523894289718361   0.905409394185813   0.111048998821138   1.0000000
N2   N   0.523950997818378   0.047683188245752   0.110996856117709   1.0000000
N2   N   0.523959761389293   0.189904990901153   0.111051746752441   1.0000000
N2   N   0.524172451695966   0.332011128320024   0.110982095633433   1.0000000
N2   N   0.523648176869573   0.763274459267614   0.111000985635131   1.0000000
N2   N   0.666631161948146   0.904770582001368   0.111013505222001   1.0000000
N2   N   0.666686619470205   0.047740018382745   0.111040548241415   1.0000000
N2   N   0.666726918410967   0.190600048785819   0.111047619848640   1.0000000
N2   N   0.666787238884339   0.333682471360421   0.111023123069956   1.0000000
N2   N   0.667898658773817   0.477403514689948   0.110981348865328   1.0000000
N2   N   0.671716095536258   0.621926548886821   0.110947831232442   1.0000000
N2   N   0.667412254082806   0.762151481261035   0.110981017024634   1.0000000
N2   N   0.809796307103129   0.905111945958669   0.111029288561957   1.0000000
N2   N   0.809337649316758   0.047623271823442   0.111062112653029   1.0000000
N2   N   0.809369270745577   0.190522790417395   0.111086967142105   1.0000000
N2   N   0.809490537775228   0.333452225101739   0.111058385980610   1.0000000
N2   N   0.810222975410793   0.476431683923592   0.111050650326875   1.0000000
N2   N   0.811390064724843   0.619720850083858   0.111091484689357   1.0000000
N2   N   0.811389989333363   0.763411574855639   0.111071667249419   1.0000000


