data_1
_audit_creation_method   'vasp2cif'
_cell_length_a    17.52789999999977
_cell_length_b    17.52789999999977
_cell_length_c    15.0
_cell_angle_alpha    90.0
_cell_angle_beta    90.0
_cell_angle_gamma    119.99999999999916

_symmetry_space_group_name_H-M    'P 1'
loop_
_atom_site_label
_atom_site_type_symbol
_atom_site_fract_x
_atom_site_fract_y
_atom_site_fract_z
_atom_site_occupancy
B2   B   0.905495761365859   0.952703454502116   0.119077258770795   1.0000000
B2   B   0.904588005891196   0.094957221925828   0.118820872282025   1.0000000
B2   B   0.904434128088392   0.237718459393402   0.117012940433726   1.0000000
B2   B   0.904940441786010   0.380752439477259   0.114991822361977   1.0000000
B2   B   0.906196907332838   0.524041527776277   0.114823746740681   1.0000000
B2   B   0.906632586193640   0.667339158171720   0.115521391996048   1.0000000
B2   B   0.906198520942405   0.810116022146817   0.117570995421216   1.0000000
B2   B   0.048077423560522   0.952317779994848   0.119627556164215   1.0000000
B2   B   0.047158349882833   0.094528023733800   0.119148527361507   1.0000000
B2   B   0.046693188118702   0.237421221260860   0.116465880165480   1.0000000
B2   B   0.046806684808397   0.380687623832960   0.113713571694928   1.0000000
B2   B   0.047651128219182   0.523926507521599   0.113345153375395   1.0000000
B2   B   0.048440790700309   0.666970912247561   0.115266972077482   1.0000000
B2   B   0.048509625369545   0.809804232680234   0.117900129906940   1.0000000
B2   B   0.190751475054023   0.952248762581664   0.117903732390277   1.0000000
B2   B   0.190162246306594   0.094507799369760   0.116716342412238   1.0000000
B2   B   0.188325016468063   0.236132690643259   0.113163283035127   1.0000000
B2   B   0.188177068404691   0.380127771715831   0.108605249929015   1.0000000
B2   B   0.189094673343140   0.523903202752213   0.108147580601565   1.0000000
B2   B   0.190536282119050   0.666898181085803   0.110913233591840   1.0000000
B2   B   0.190810452323638   0.809634876044425   0.115400980523142   1.0000000
B2   B   0.333348543417780   0.952177992499643   0.115292388137881   1.0000000
B2   B   0.333227001360021   0.094689584288721   0.114410384436326   1.0000000
B2   B   0.331863779179048   0.236175560427613   0.107286179525077   1.0000000
B2   B   0.327102380645512   0.377219869298112   0.096448598859558   1.0000000
B2   B   0.329601864861044   0.523589742686131   0.095245895007218   1.0000000
B2   B   0.332957692136450   0.666906944376758   0.103531365473010   1.0000000
B2   B   0.333252646070442   0.809588950893494   0.110946109208805   1.0000000
B2   B   0.476054026444936   0.952327053278435   0.113261385065770   1.0000000
B2   B   0.476101486891269   0.094584572777527   0.113920552006864   1.0000000
B2   B   0.476114480502407   0.236424092947482   0.110124956404433   1.0000000
B2   B   0.472111425094109   0.371109779597444   0.098364832405236   1.0000000
B2   B   0.476070320253578   0.668845499384996   0.098261541091407   1.0000000
B2   B   0.476073348388655   0.810273879673533   0.107861302087954   1.0000000
B2   B   0.619023377493663   0.952548863982661   0.113548764171305   1.0000000
B2   B   0.618966766315705   0.094860274322456   0.114953356275904   1.0000000
B2   B   0.619368651843829   0.237387357959086   0.112484552739249   1.0000000
B2   B   0.621042156122403   0.380336662616951   0.107106303255474   1.0000000
B2   B   0.632628599996555   0.528301309551392   0.086171581140984   1.0000000
B2   B   0.623956557404388   0.671723684184639   0.099519268783327   1.0000000
B2   B   0.619739745643713   0.810743756267584   0.109018923919316   1.0000000
B2   B   0.762250623651109   0.952689681517548   0.116272283903156   1.0000000
B2   B   0.761798329611572   0.094998749505527   0.117017358318391   1.0000000
B2   B   0.761973133468831   0.237640578431743   0.115310836092099   1.0000000
B2   B   0.762969155591254   0.380618200250061   0.112887724174866   1.0000000
B2   B   0.765680668221160   0.524605779568264   0.111161159282578   1.0000000
B2   B   0.765274286589018   0.668355666126673   0.109360264010442   1.0000000
B2   B   0.764177143675118   0.811379319892076   0.113769220841022   1.0000000
N2   N   0.952943893329158   0.904890656362682   0.119457847788850   1.0000000
N2   N   0.952357982016354   0.047450244911727   0.119728791862783   1.0000000
N2   N   0.951894662706293   0.190048596178444   0.118061956407511   1.0000000
N2   N   0.951959860493592   0.332945178384329   0.115666418452881   1.0000000
N2   N   0.952662759481075   0.475998307168095   0.114612151935958   1.0000000
N2   N   0.953186112395003   0.619128932036525   0.115516696033768   1.0000000
N2   N   0.953252461561794   0.762139855740913   0.117345558623039   1.0000000
N2   N   0.095703028524725   0.904845255346980   0.119051915600162   1.0000000
N2   N   0.095303894091521   0.047422468401806   0.119398829366567   1.0000000
N2   N   0.094144514387389   0.189509942681551   0.117341826495907   1.0000000
N2   N   0.093954986395742   0.332682128670454   0.113378211982230   1.0000000
N2   N   0.094514291614111   0.475945889309596   0.111910187701458   1.0000000
N2   N   0.095479409395646   0.619077698141675   0.113301446503035   1.0000000
N2   N   0.095721204022456   0.762022535033029   0.116508156284615   1.0000000
N2   N   0.238339464796298   0.904802523969376   0.116664665134247   1.0000000
N2   N   0.238330525042114   0.047620079578454   0.116897060581686   1.0000000
N2   N   0.237567016698312   0.189972906106041   0.112599737126376   1.0000000
N2   N   0.234647024438491   0.330941845837895   0.107838071173325   1.0000000
N2   N   0.235793646667914   0.475602429793701   0.104963662835498   1.0000000
N2   N   0.237912308960706   0.619061511762337   0.106914177876131   1.0000000
N2   N   0.238223019388967   0.761968489471722   0.112274907710750   1.0000000
N2   N   0.380973280642953   0.904721080016516   0.113354807189531   1.0000000
N2   N   0.381073073003498   0.047611559193552   0.115037507322056   1.0000000
N2   N   0.381143388770291   0.190605114202507   0.110428032233306   1.0000000
N2   N   0.379525530844016   0.333193633990231   0.098182681497463   1.0000000
N2   N   0.370126548241175   0.470438524106410   0.084276894747770   1.0000000
N2   N   0.380726284932923   0.618842725874276   0.096849689040701   1.0000000
N2   N   0.380914285018404   0.761921137209991   0.106908899606153   1.0000000
N2   N   0.523833985620470   0.904998293242746   0.111614724281679   1.0000000
N2   N   0.523807498471801   0.047486540478619   0.114462933294016   1.0000000
N2   N   0.524086471048286   0.190187671330147   0.112048870287860   1.0000000
N2   N   0.525465647040075   0.333532254954567   0.107343444910467   1.0000000
N2   N   0.529741205947241   0.627157694248743   0.093272984157718   1.0000000
N2   N   0.524232884879263   0.763045384152414   0.105229705279990   1.0000000
N2   N   0.666969690499443   0.905159572919360   0.113214765039964   1.0000000
N2   N   0.666608701659458   0.047504063735858   0.115669474100073   1.0000000
N2   N   0.666710027146084   0.190184405482335   0.114473252710499   1.0000000
N2   N   0.667406438889158   0.333067794095805   0.111001210254697   1.0000000
N2   N   0.669601281604204   0.476050649390567   0.103939784841748   1.0000000
N2   N   0.668996152284065   0.620196439732865   0.097710635487735   1.0000000
N2   N   0.669351686309116   0.764467615485305   0.108697564296361   1.0000000
N2   N   0.810483333721423   0.905516837330424   0.117132525590523   1.0000000
N2   N   0.809478616892767   0.047509019835381   0.117982107586463   1.0000000
N2   N   0.809330184440754   0.190139263099626   0.117041608062408   1.0000000
N2   N   0.809705993945289   0.332973128881093   0.114446025927462   1.0000000
N2   N   0.810862256753160   0.476015699864878   0.113791282878461   1.0000000
N2   N   0.811028452781949   0.619388569959479   0.112498672479882   1.0000000
N2   N   0.810747197826855   0.762487481884156   0.114580749372778   1.0000000
As2   As   0.486620959655602   0.513381015943025   0.066948100586198   1.0000000


