data_1
_audit_creation_method   'vasp2cif'
_cell_length_a    17.52789999999977
_cell_length_b    17.52789999999977
_cell_length_c    15.0
_cell_angle_alpha    90.0
_cell_angle_beta    90.0
_cell_angle_gamma    119.99999999999916

_symmetry_space_group_name_H-M    'P 1'
loop_
_atom_site_label
_atom_site_type_symbol
_atom_site_fract_x
_atom_site_fract_y
_atom_site_fract_z
_atom_site_occupancy
B2   B   0.904723970888513   0.952252302181573   0.111012611579551   1.0000000
B2   B   0.904989442151960   0.095012304540039   0.111052099253519   1.0000000
B2   B   0.904562660836397   0.237989203056521   0.111050413728777   1.0000000
B2   B   0.904991111561509   0.381418128094594   0.111004042213761   1.0000000
B2   B   0.904726470215332   0.523869170005330   0.110990262738215   1.0000000
B2   B   0.904476538245526   0.666646744173350   0.111042511271569   1.0000000
B2   B   0.904480742635974   0.809260265389062   0.111045884859486   1.0000000
B2   B   0.047645240152832   0.952356483212163   0.111001906639913   1.0000000
B2   B   0.047749413160429   0.095277749583493   0.111012611106550   1.0000000
B2   B   0.048286934848269   0.238539105373255   0.111017942736512   1.0000000
B2   B   0.048274596961077   0.381169611669114   0.111030884315547   1.0000000
B2   B   0.047718604171286   0.523862838787550   0.111004770982681   1.0000000
B2   B   0.047650610718781   0.666732042948146   0.111012867007630   1.0000000
B2   B   0.047576635708587   0.809506324641691   0.110988594988438   1.0000000
B2   B   0.190495425051308   0.952425127384423   0.110988593462441   1.0000000
B2   B   0.190741435646936   0.095520970072032   0.111045880735489   1.0000000
B2   B   0.191292742252660   0.238817408746554   0.111026836696598   1.0000000
B2   B   0.190899971723877   0.381157672168949   0.110998006767391   1.0000000
B2   B   0.191281902866840   0.523914019080825   0.111038985076318   1.0000000
B2   B   0.190744351751266   0.666666167424474   0.111059714140252   1.0000000
B2   B   0.190498771098762   0.809502923442236   0.110993494736756   1.0000000
B2   B   0.333269692756852   0.952351113115223   0.111012869421628   1.0000000
B2   B   0.333354969803649   0.095525201674476   0.111042506894569   1.0000000
B2   B   0.333534771133106   0.238478965051181   0.111085512644590   1.0000000
B2   B   0.334611309385797   0.381999630284304   0.110997748897375   1.0000000
B2   B   0.334612298789454   0.524047305259410   0.111018130530830   1.0000000
B2   B   0.333512943754328   0.666488759019672   0.111076311265709   1.0000000
B2   B   0.333335485895524   0.809257277091729   0.111059717673255   1.0000000
B2   B   0.476138848631450   0.952282976758711   0.111004776293682   1.0000000
B2   B   0.476132571500675   0.095275352460666   0.110990271431215   1.0000000
B2   B   0.476082328405808   0.238813889335022   0.111045196512476   1.0000000
B2   B   0.475968237026957   0.382002904695380   0.111049980516846   1.0000000
B2   B   0.475954479173585   0.665389558550549   0.111018131044837   1.0000000
B2   B   0.476087696709174   0.808719784201160   0.111038990813318   1.0000000
B2   B   0.618832127302896   0.951727087455924   0.111030886422547   1.0000000
B2   B   0.618583542253404   0.095010575720492   0.111004043299761   1.0000000
B2   B   0.618858696825929   0.238562938569523   0.111018787458894   1.0000000
B2   B   0.618845390532126   0.381156343676875   0.111018479799679   1.0000000
B2   B   0.617998664274619   0.524033430176045   0.111049975258844   1.0000000
B2   B   0.618002019170690   0.665390414330199   0.110997748610373   1.0000000
B2   B   0.618844070991050   0.809101797679123   0.110998002419389   1.0000000
B2   B   0.761462635154744   0.951714784678730   0.111017944962508   1.0000000
B2   B   0.762012492704479   0.095439015697601   0.111050416131776   1.0000000
B2   B   0.762001103097004   0.238000602082994   0.111059345644516   1.0000000
B2   B   0.761438883814477   0.381143058605072   0.111018779051894   1.0000000
B2   B   0.761187862840975   0.523919354401203   0.111045188548478   1.0000000
B2   B   0.761522693719817   0.666466909411891   0.111085521272589   1.0000000
B2   B   0.761184262677447   0.808708974429340   0.111026839170594   1.0000000
C2   C   0.476211005292947   0.523790650254049   0.111200230162658   1.0000000
N2   N   0.952201544521173   0.904770226521610   0.111001472371354   1.0000000
N2   N   0.952369288835018   0.047632428474981   0.111005523095944   1.0000000
N2   N   0.952349565923125   0.190520091072022   0.111034259816208   1.0000000
N2   N   0.952344355885013   0.333293286300067   0.111015014767280   1.0000000
N2   N   0.952355770855719   0.476156308671114   0.110956514440539   1.0000000
N2   N   0.952194152118447   0.618825408920060   0.110995251835430   1.0000000
N2   N   0.952215816296991   0.761800444934992   0.111018984705370   1.0000000
N2   N   0.095206662374212   0.904795090093790   0.110960332890935   1.0000000
N2   N   0.095231478916393   0.047800174293827   0.111001478868351   1.0000000
N2   N   0.095473066998024   0.190872454317275   0.110998174988073   1.0000000
N2   N   0.095514846498432   0.333482867485491   0.110998581186054   1.0000000
N2   N   0.095447570625400   0.476028427313133   0.111008044336728   1.0000000
N2   N   0.095202602058515   0.618837608987559   0.111015622616264   1.0000000
N2   N   0.095204762838101   0.761827126498155   0.110970676201990   1.0000000
N2   N   0.238174585662846   0.904796947919898   0.110970677093991   1.0000000
N2   N   0.238201284442012   0.047785952667007   0.111018977282373   1.0000000
N2   N   0.238298578090605   0.190775562977017   0.111048621799201   1.0000000
N2   N   0.238886911680637   0.334177606890177   0.110978907426734   1.0000000
N2   N   0.238866928900396   0.476150161323714   0.111000181942040   1.0000000
N2   N   0.238267981096138   0.618956596771490   0.111052698940614   1.0000000
N2   N   0.238176179980766   0.761825454214228   0.111025363219319   1.0000000
N2   N   0.381164062115441   0.904799023724485   0.111015626766267   1.0000000
N2   N   0.381176318266938   0.047807598801552   0.110995259583430   1.0000000
N2   N   0.381077971327297   0.190777979659275   0.111050985850468   1.0000000
N2   N   0.381077520659181   0.333542928367534   0.111054260025959   1.0000000
N2   N   0.383552800006406   0.477488468632631   0.110958510706721   1.0000000
N2   N   0.381048314533104   0.618953483425898   0.111048771756342   1.0000000
N2   N   0.381045141717507   0.761733725783861   0.111052703561615   1.0000000
N2   N   0.523973304914867   0.904554024890597   0.111008058114727   1.0000000
N2   N   0.523845349677886   0.047645890904284   0.110956514885545   1.0000000
N2   N   0.523988185259383   0.190868145867107   0.111000023169455   1.0000000
N2   N   0.523881226821823   0.334162679081298   0.111025926490703   1.0000000
N2   N   0.522531379851018   0.477470216773987   0.110995601162210   1.0000000
N2   N   0.522513190650370   0.616448882132595   0.110958512284723   1.0000000
N2   N   0.523851621289291   0.761134927427609   0.111000179126038   1.0000000
N2   N   0.666518923126505   0.904486900974568   0.110998578973054   1.0000000
N2   N   0.666708383430924   0.047657298363991   0.111015013299284   1.0000000
N2   N   0.666726633410406   0.190530173326082   0.111022333419941   1.0000000
N2   N   0.666528537722241   0.333473272826760   0.110993268286600   1.0000000
N2   N   0.665838985050695   0.476120489188174   0.111025906091703   1.0000000
N2   N   0.666458702276466   0.618924173885817   0.111054262660957   1.0000000
N2   N   0.665824059563820   0.761114845787362   0.110978900295734   1.0000000
N2   N   0.809129258198728   0.904528648035979   0.110998175364078   1.0000000
N2   N   0.809481634204981   0.047652143149872   0.111034269503208   1.0000000
N2   N   0.809514620057165   0.190487034634835   0.111039787167117   1.0000000
N2   N   0.809471564781915   0.333275051750596   0.111022327479946   1.0000000
N2   N   0.809133745687894   0.476013569190621   0.111000002658453   1.0000000
N2   N   0.809223741707724   0.618923732719704   0.111051001203471   1.0000000
N2   N   0.809226099116983   0.761703113693403   0.111048633095196   1.0000000


