data_1
_audit_creation_method   'vasp2cif'
_cell_length_a    17.52789999999977
_cell_length_b    17.52789999999977
_cell_length_c    15.0
_cell_angle_alpha    90.0
_cell_angle_beta    90.0
_cell_angle_gamma    119.99999999999916

_symmetry_space_group_name_H-M    'P 1'
loop_
_atom_site_label
_atom_site_type_symbol
_atom_site_fract_x
_atom_site_fract_y
_atom_site_fract_z
_atom_site_occupancy
As2   As   0.394040127622179   0.482324942005859   0.111042622749296   1.0000000
B2   B   0.907542714771523   0.952561709258284   0.110704379241520   1.0000000
B2   B   0.908602690643115   0.095869484836629   0.110829795209155   1.0000000
B2   B   0.908738924573913   0.238502226873325   0.110765065494140   1.0000000
B2   B   0.907899848570360   0.380914095062623   0.110695243828335   1.0000000
B2   B   0.904710416594138   0.522980557788843   0.110735125742924   1.0000000
B2   B   0.902816378843110   0.664715437631918   0.110744175932538   1.0000000
B2   B   0.903925375898122   0.807395701377865   0.110666967788158   1.0000000
B2   B   0.048844746820267   0.951568719631623   0.110642658866889   1.0000000
B2   B   0.050297022462765   0.094603057487030   0.110765395495079   1.0000000
B2   B   0.051583800968807   0.238531850369289   0.110830193618998   1.0000000
B2   B   0.050841840531312   0.381614814963271   0.110736808213631   1.0000000
B2   B   0.047784914612932   0.524368201534431   0.110726789032101   1.0000000
B2   B   0.046946183770171   0.666479534707973   0.110762306053029   1.0000000
B2   B   0.047220645538469   0.808616308836561   0.110681320874089   1.0000000
B2   B   0.191506789528876   0.951896013068188   0.110671948602437   1.0000000
B2   B   0.193550625340505   0.094854081652241   0.110700074735010   1.0000000
B2   B   0.192651570190808   0.235479300558139   0.110726232606978   1.0000000
B2   B   0.194789861006757   0.382021095396787   0.110716909297933   1.0000000
B2   B   0.189514272660385   0.525911814746111   0.110691527338275   1.0000000
B2   B   0.190262955325966   0.668340473538397   0.110807857258503   1.0000000
B2   B   0.190610069374721   0.810000223782465   0.110722012149549   1.0000000
B2   B   0.334876942472917   0.952796749740767   0.110744283330812   1.0000000
B2   B   0.335994263235811   0.093571247087741   0.110734964851295   1.0000000
B2   B   0.340208285033023   0.235865189410214   0.110722867121894   1.0000000
B2   B   0.334228738920660   0.363384808556095   0.110814226199099   1.0000000
B2   B   0.329649813122132   0.536827468582140   0.110608462268051   1.0000000
B2   B   0.333795149753570   0.673778201316304   0.110759271604646   1.0000000
B2   B   0.334310816932099   0.812651509321180   0.110883404009733   1.0000000
B2   B   0.478768022621291   0.954019988237644   0.110845930701923   1.0000000
B2   B   0.479337937684451   0.094782438009336   0.110839132415867   1.0000000
B2   B   0.480894314213105   0.236477131085618   0.110749503499434   1.0000000
B2   B   0.496259937474865   0.389953602001269   0.110603543362401   1.0000000
B2   B   0.478590401800504   0.674383802475415   0.110615524270586   1.0000000
B2   B   0.478794194980829   0.813863940493409   0.110798491585228   1.0000000
B2   B   0.622625065460857   0.954181329951080   0.110765501878586   1.0000000
B2   B   0.622737193323366   0.095351395969683   0.110756363186340   1.0000000
B2   B   0.623151252681371   0.236489923890720   0.110749456933914   1.0000000
B2   B   0.623922824985335   0.377231697882637   0.110798850282196   1.0000000
B2   B   0.598460147098861   0.500684212588455   0.110603931745965   1.0000000
B2   B   0.625925846616605   0.671582136579179   0.110580978845058   1.0000000
B2   B   0.622917762351182   0.812743540115512   0.110655111364705   1.0000000
B2   B   0.765726714668038   0.953707185146994   0.110745410157736   1.0000000
B2   B   0.765906727228127   0.095921944258892   0.110739185494926   1.0000000
B2   B   0.765950393745316   0.237872702051345   0.110694327834838   1.0000000
B2   B   0.765466581898828   0.379839136776327   0.110734849665867   1.0000000
B2   B   0.759714056891413   0.520720552027984   0.110844164235705   1.0000000
B2   B   0.756691921191043   0.661103167515881   0.110665690371560   1.0000000
B2   B   0.765397559618557   0.810897021526434   0.110658513337675   1.0000000
N2   N   0.953484293246079   0.903653874500680   0.110614894480135   1.0000000
N2   N   0.955437513700678   0.047707748791412   0.110780717774524   1.0000000
N2   N   0.956439398522447   0.191082940039407   0.110837601257414   1.0000000
N2   N   0.956011187915514   0.333585875726493   0.110713060688005   1.0000000
N2   N   0.953393917456477   0.476033660355584   0.110683459782008   1.0000000
N2   N   0.952060921795243   0.618322267661694   0.110739114161715   1.0000000
N2   N   0.952048842695460   0.760526687900285   0.110672505980246   1.0000000
N2   N   0.096074224356100   0.903945458130980   0.110637891954002   1.0000000
N2   N   0.097657991758604   0.047015114590261   0.110671833332363   1.0000000
N2   N   0.097761699634814   0.189462402370049   0.110770289519962   1.0000000
N2   N   0.099228206051268   0.334153141548833   0.110772052394376   1.0000000
N2   N   0.095398585881706   0.476979582328024   0.110703192124761   1.0000000
N2   N   0.095215672679205   0.619647218635965   0.110767400144804   1.0000000
N2   N   0.095326474383826   0.761745858459090   0.110707650699133   1.0000000
N2   N   0.239262594280133   0.904829517062049   0.110647848854835   1.0000000
N2   N   0.240216210235180   0.046570933415548   0.110675882922156   1.0000000
N2   N   0.242393773220367   0.189740036927161   0.110706108109469   1.0000000
N2   N   0.239881438294079   0.330047440031393   0.110703994198086   1.0000000
N2   N   0.236569146499315   0.478661734316986   0.110598461069842   1.0000000
N2   N   0.238194347100177   0.621836323272898   0.110752532586916   1.0000000
N2   N   0.238744334076052   0.763476225657052   0.110807752849537   1.0000000
N2   N   0.383153572784556   0.906745623720677   0.110828510608030   1.0000000
N2   N   0.383684712971955   0.046745848239156   0.110757126989573   1.0000000
N2   N   0.385050864320050   0.186901414219664   0.110706970837925   1.0000000
N2   N   0.391149790643471   0.329262006548883   0.110693680955590   1.0000000
N2   N   0.382486129641096   0.629693973903610   0.110594854705240   1.0000000
N2   N   0.382966584740300   0.767525765130640   0.110860364167758   1.0000000
N2   N   0.527233301060321   0.907918515119306   0.110819938494939   1.0000000
N2   N   0.527390685248316   0.048089495169122   0.110806218765378   1.0000000
N2   N   0.528074083755947   0.188608488543143   0.110787559328903   1.0000000
N2   N   0.530074238088420   0.329406654862084   0.110728219138570   1.0000000
N2   N   0.505398507774370   0.547851450283083   0.111330749111554   1.0000000
N2   N   0.531462585539812   0.633592781674649   0.110650960674788   1.0000000
N2   N   0.527489273175029   0.768272580867413   0.110651784466862   1.0000000
N2   N   0.670667037657711   0.907389079773659   0.110714668116747   1.0000000
N2   N   0.670787741191670   0.048605404757646   0.110718504865217   1.0000000
N2   N   0.671067424794677   0.189577133392044   0.110706489086524   1.0000000
N2   N   0.671659594478070   0.330455884993485   0.110707704851569   1.0000000
N2   N   0.666009475662121   0.471185066655294   0.110847367002830   1.0000000
N2   N   0.661342885406218   0.612961238437958   0.110553163838175   1.0000000
N2   N   0.671498280202275   0.766282089829968   0.110577476754238   1.0000000
N2   N   0.813046389177760   0.906109379716013   0.110703979854629   1.0000000
N2   N   0.813587592823015   0.048680037087837   0.110776093998975   1.0000000
N2   N   0.813827378896994   0.190719923607299   0.110707729983107   1.0000000
N2   N   0.813556989852230   0.332660177962633   0.110672837589794   1.0000000
N2   N   0.810419664938248   0.474755100206148   0.110763098577948   1.0000000
N2   N   0.808057225845381   0.616643648923502   0.110759153232567   1.0000000
N2   N   0.808723555804882   0.759507526057017   0.110681328641648   1.0000000


