data_1
_audit_creation_method   'vasp2cif'
_cell_length_a    14.93631414619966
_cell_length_b    14.936314146199727
_cell_length_c    13.341276283792837
_cell_angle_alpha    90.0
_cell_angle_beta    90.0
_cell_angle_gamma    119.99999999999984

_symmetry_space_group_name_H-M    'P 1'
loop_
_atom_site_label
_atom_site_type_symbol
_atom_site_fract_x
_atom_site_fract_y
_atom_site_fract_z
_atom_site_occupancy
O2   O   0.444221894282840   0.389127075565745   0.375000000000000   1.0000000
N2   N   0.111068005194490   0.055543648536706   0.124874096585907   1.0000000
N2   N   0.611101509796211   0.555549289476762   0.125001152376948   1.0000000
N2   N   0.444435862617652   0.055578207375941   0.124959634018821   1.0000000
N2   N   0.944418391403731   0.555546276736364   0.124950771536233   1.0000000
N2   N   0.777761333410239   0.055530906336323   0.124850689311731   1.0000000
N2   N   0.111090372612545   0.722222932401098   0.625129953697016   1.0000000
N2   N   0.444439857212343   0.722211167330759   0.625085545820032   1.0000000
N2   N   0.277709480580930   0.222204136987618   0.624922958295341   1.0000000
N2   N   0.777776648245691   0.722230683914600   0.625100470885663   1.0000000
N2   N   0.611112935499557   0.222220829666362   0.624772707926858   1.0000000
N2   N   0.944409316472743   0.222185744233506   0.625161548894182   1.0000000
N2   N   0.277766229385401   0.722220938231400   0.124877025878211   1.0000000
N2   N   0.111041734394223   0.222176286442722   0.124826444331895   1.0000000
N2   N   0.444408942954866   0.222230908051547   0.125309420242054   1.0000000
N2   N   0.611107265164940   0.722206830356127   0.124929526323502   1.0000000
N2   N   0.944430515192694   0.722233155517559   0.124895625166123   1.0000000
N2   N   0.777767453046813   0.222196842538009   0.124895836678332   1.0000000
N2   N   0.111093033609893   0.888901090840865   0.625128767009211   1.0000000
N2   N   0.444440563569631   0.888903476158877   0.625117460899604   1.0000000
N2   N   0.277735230748358   0.388839728115224   0.624889885855922   1.0000000
N2   N   0.611078643192310   0.388918571151859   0.625090627531891   1.0000000
N2   N   0.777768367297096   0.888878939530675   0.625107640334409   1.0000000
N2   N   0.944413818106850   0.388863498804202   0.625114907504116   1.0000000
N2   N   0.111076970597859   0.388857466797218   0.124891680096513   1.0000000
N2   N   0.277769121253518   0.888908795103243   0.124865987848519   1.0000000
N2   N   0.611102568090232   0.888883801875558   0.124888681625399   1.0000000
N2   N   0.444399537729956   0.388865883093515   0.125302876184564   1.0000000
N2   N   0.944431695807213   0.888894657839237   0.124870756985801   1.0000000
N2   N   0.777758123312487   0.388870747946003   0.125211835613475   1.0000000
N2   N   0.277764449747657   0.555530842147038   0.625072083992336   1.0000000
N2   N   0.111068005194490   0.055543648536706   0.625125903414092   1.0000000
N2   N   0.611101509796211   0.555549289476762   0.624998847623051   1.0000000
N2   N   0.444435862617652   0.055578207375941   0.625040365981179   1.0000000
N2   N   0.944418391403731   0.555546276736364   0.625049228463767   1.0000000
N2   N   0.111084056222025   0.555538457462156   0.124871342775986   1.0000000
N2   N   0.777761333410239   0.055530906336323   0.625149310688268   1.0000000
N2   N   0.277750407125276   0.055571855977816   0.124908449033618   1.0000000
N2   N   0.444450926061846   0.555538636778630   0.125092212459494   1.0000000
N2   N   0.777767716744246   0.555581610270745   0.125148112264009   1.0000000
N2   N   0.611106298557558   0.055557014105107   0.124884648190636   1.0000000
N2   N   0.444450926061846   0.555538636778630   0.624907787540506   1.0000000
N2   N   0.944409457933290   0.055526696140764   0.124845858479574   1.0000000
N2   N   0.277766229385401   0.722220938231400   0.625122974121790   1.0000000
N2   N   0.111041734394223   0.222176286442722   0.625173555668105   1.0000000
N2   N   0.444408942954866   0.222230908051547   0.624690579757945   1.0000000
N2   N   0.611107265164940   0.722206830356127   0.625070473676498   1.0000000
N2   N   0.944430515192694   0.722233155517559   0.625104374833877   1.0000000
N2   N   0.777767453046813   0.222196842538009   0.625104163321669   1.0000000
N2   N   0.111090372612545   0.722222932401098   0.124870046302984   1.0000000
N2   N   0.444439857212343   0.722211167330759   0.124914454179968   1.0000000
N2   N   0.277709480580930   0.222204136987618   0.125077041704659   1.0000000
N2   N   0.777776648245691   0.722230683914600   0.124899529114337   1.0000000
N2   N   0.611112935499557   0.222220829666362   0.125227292073142   1.0000000
N2   N   0.944409316472743   0.222185744233506   0.124838451105818   1.0000000
N2   N   0.111076970597859   0.388857466797218   0.625108319903487   1.0000000
N2   N   0.277769121253518   0.888908795103243   0.625134012151482   1.0000000
N2   N   0.611102568090232   0.888883801875558   0.625111318374601   1.0000000
N2   N   0.444399537729956   0.388865883093515   0.624697123815436   1.0000000
N2   N   0.944431695807213   0.888894657839237   0.625129243014199   1.0000000
N2   N   0.111093033609893   0.888901090840865   0.124871232990789   1.0000000
N2   N   0.777758123312487   0.388870747946003   0.624788164386525   1.0000000
N2   N   0.444440563569631   0.888903476158877   0.124882539100396   1.0000000
N2   N   0.277735230748358   0.388839728115224   0.125110114144078   1.0000000
N2   N   0.277764449747657   0.555530842147038   0.124927916007664   1.0000000
N2   N   0.611078643192310   0.388918571151859   0.124909372468109   1.0000000
N2   N   0.777768367297096   0.888878939530675   0.124892359665592   1.0000000
N2   N   0.944413818106850   0.388863498804202   0.124885092495884   1.0000000
N2   N   0.111084056222025   0.555538457462156   0.625128657224014   1.0000000
N2   N   0.277750407125276   0.055571855977816   0.625091550966382   1.0000000
N2   N   0.777767716744246   0.555581610270745   0.624851887735992   1.0000000
N2   N   0.611106298557558   0.055557014105107   0.625115351809364   1.0000000
N2   N   0.944409457933290   0.055526696140764   0.625154141520425   1.0000000
N2   N   0.054604866871897   0.110395691637003   0.375000000000000   1.0000000
N2   N   0.555866502448956   0.609330981796492   0.375000000000000   1.0000000
N2   N   0.389797831781530   0.114339127347673   0.375000000000000   1.0000000
N2   N   0.889550117450037   0.611231682080980   0.375000000000000   1.0000000
N2   N   0.721661473537499   0.110583676897127   0.375000000000000   1.0000000
N2   N   0.055560188344731   0.777779826525250   0.875000000000000   1.0000000
N2   N   0.388889512285766   0.777782901172924   0.875000000000000   1.0000000
N2   N   0.222226727340767   0.277789269336825   0.875000000000000   1.0000000
N2   N   0.722220644020845   0.777781591673692   0.875000000000000   1.0000000
N2   N   0.555557270726384   0.277780961498913   0.875000000000000   1.0000000
N2   N   0.888894130456138   0.277791541831405   0.875000000000000   1.0000000
N2   N   0.222873282281875   0.777966858723411   0.375000000000000   1.0000000
N2   N   0.054516344707498   0.277259995703334   0.375000000000000   1.0000000
N2   N   0.386067840189317   0.278687348988327   0.375000000000000   1.0000000
N2   N   0.555256682538221   0.776764314830526   0.375000000000000   1.0000000
N2   N   0.889978672028467   0.778492364127099   0.375000000000000   1.0000000
N2   N   0.722387709060670   0.277227267362210   0.375000000000000   1.0000000
N2   N   0.055558333213109   0.944449463494414   0.875000000000000   1.0000000
N2   N   0.388890058776171   0.944444262996203   0.875000000000000   1.0000000
N2   N   0.222227310987502   0.444457004512947   0.875000000000000   1.0000000
N2   N   0.555554587442597   0.444453979831114   0.875000000000000   1.0000000
N2   N   0.722219901024899   0.944449064587679   0.875000000000000   1.0000000
N2   N   0.888899281879924   0.444456027671667   0.875000000000000   1.0000000
N2   N   0.055714647564064   0.444269785215197   0.375000000000000   1.0000000
N2   N   0.223110925702229   0.945408061805147   0.375000000000000   1.0000000
N2   N   0.555177534567484   0.944068009195140   0.375000000000000   1.0000000
N2   N   0.385719937841422   0.440578174607914   0.375000000000000   1.0000000
N2   N   0.888532421533515   0.944032051739727   0.375000000000000   1.0000000
N2   N   0.725178255405024   0.445335941356273   0.375000000000000   1.0000000
N2   N   0.222225182544399   0.611118220248653   0.875000000000000   1.0000000
N2   N   0.055558134167440   0.111116976964430   0.875000000000000   1.0000000
N2   N   0.555553056915539   0.611116445080548   0.875000000000000   1.0000000
N2   N   0.388892403011049   0.111112296672732   0.875000000000000   1.0000000
N2   N   0.888895892114286   0.611115145660934   0.875000000000000   1.0000000
N2   N   0.056255765872068   0.611221022565121   0.375000000000000   1.0000000
N2   N   0.722219181132485   0.111116562961001   0.875000000000000   1.0000000
N2   N   0.222469000247533   0.111798730814679   0.375000000000000   1.0000000
N2   N   0.389016460538331   0.608597291172429   0.375000000000000   1.0000000
N2   N   0.723963388151158   0.612618501418364   0.375000000000000   1.0000000
N2   N   0.555434105123589   0.111558405663071   0.375000000000000   1.0000000
N2   N   0.388890078224563   0.611118552518837   0.875000000000000   1.0000000
N2   N   0.888131024403159   0.110546061089321   0.375000000000000   1.0000000
N2   N   0.222225475245796   0.777780313646787   0.875000000000000   1.0000000
N2   N   0.055560219986749   0.277790502356253   0.875000000000000   1.0000000
N2   N   0.388893444949425   0.277788051597671   0.875000000000000   1.0000000
N2   N   0.555552165105289   0.777781772015068   0.875000000000000   1.0000000
N2   N   0.888892634334473   0.777783468898745   0.875000000000000   1.0000000
N2   N   0.722225250360634   0.277785779923330   0.875000000000000   1.0000000
N2   N   0.056383489854641   0.778152426677493   0.375000000000000   1.0000000
N2   N   0.389073577353882   0.776978386121707   0.375000000000000   1.0000000
N2   N   0.219532818471371   0.276392326954763   0.375000000000000   1.0000000
N2   N   0.722118802929972   0.777481471045211   0.375000000000000   1.0000000
N2   N   0.557553121583051   0.280121312732917   0.375000000000000   1.0000000
N2   N   0.888562575797794   0.277475860931103   0.375000000000000   1.0000000
N2   N   0.055561886977926   0.444456216100376   0.875000000000000   1.0000000
N2   N   0.222224848453448   0.944445888734972   0.875000000000000   1.0000000
N2   N   0.555552158422538   0.944447650371228   0.875000000000000   1.0000000
N2   N   0.388892585344055   0.444457323096290   0.875000000000000   1.0000000
N2   N   0.888891850025334   0.944450746003381   0.875000000000000   1.0000000
N2   N   0.056148633524809   0.944888183920881   0.375000000000000   1.0000000
N2   N   0.722229362845068   0.444452334524900   0.875000000000000   1.0000000
N2   N   0.389161823594988   0.945185290697387   0.375000000000000   1.0000000
N2   N   0.222050562514003   0.443760289448763   0.375000000000000   1.0000000
N2   N   0.222704131077032   0.610726073537139   0.375000000000000   1.0000000
N2   N   0.721623612450106   0.943836184200148   0.375000000000000   1.0000000
N2   N   0.889346600929073   0.444423336902553   0.375000000000000   1.0000000
N2   N   0.055563090554220   0.611115568578648   0.875000000000000   1.0000000
N2   N   0.222225320357856   0.111116782411734   0.875000000000000   1.0000000
N2   N   0.722221674434115   0.611114465579303   0.875000000000000   1.0000000
N2   N   0.555553005745183   0.111110582954025   0.875000000000000   1.0000000
N2   N   0.888891372878000   0.111118908013133   0.875000000000000   1.0000000
B2   B   0.111525668144764   0.056003269212345   0.375000000000000   1.0000000
B2   B   0.615037313477109   0.558153644541711   0.375000000000000   1.0000000
B2   B   0.444896853320887   0.057827203078797   0.375000000000000   1.0000000
B2   B   0.944444852068206   0.555193361157548   0.375000000000000   1.0000000
B2   B   0.776884211667770   0.055212596615447   0.375000000000000   1.0000000
B2   B   0.111098901017470   0.722208324499581   0.875000000000000   1.0000000
B2   B   0.444442421120038   0.722220274865890   0.875000000000000   1.0000000
B2   B   0.277854906958795   0.222261686689927   0.875000000000000   1.0000000
B2   B   0.777750812949421   0.722159665339836   0.875000000000000   1.0000000
B2   B   0.611102487932250   0.222276108795155   0.875000000000000   1.0000000
B2   B   0.944430986548087   0.222254168674186   0.875000000000000   1.0000000
B2   B   0.278048309269501   0.721958584698336   0.375000000000000   1.0000000
B2   B   0.109307050071425   0.221235641057477   0.375000000000000   1.0000000
B2   B   0.450411541308193   0.229686230440142   0.375000000000000   1.0000000
B2   B   0.610988472474926   0.721372967828175   0.375000000000000   1.0000000
B2   B   0.944882338964871   0.721879791939356   0.375000000000000   1.0000000
B2   B   0.776892600498598   0.222245268395570   0.375000000000000   1.0000000
B2   B   0.111126590553695   0.888889599716412   0.875000000000000   1.0000000
B2   B   0.444449790121283   0.888920620428133   0.875000000000000   1.0000000
B2   B   0.277823616843355   0.388903876864711   0.875000000000000   1.0000000
B2   B   0.611112320707374   0.388876989148809   0.875000000000000   1.0000000
B2   B   0.777764591886236   0.888877795773135   0.875000000000000   1.0000000
B2   B   0.944408441222469   0.388906541141363   0.875000000000000   1.0000000
B2   B   0.110649004067178   0.388376324760823   0.375000000000000   1.0000000
B2   B   0.278404615140443   0.889535435487517   0.375000000000000   1.0000000
B2   B   0.610476993128255   0.888342173058644   0.375000000000000   1.0000000
B2   B   0.945026791874917   0.889208502677800   0.375000000000000   1.0000000
B2   B   0.775891973269983   0.388414151553316   0.375000000000000   1.0000000
B2   B   0.277786029975306   0.555559439204278   0.875000000000000   1.0000000
B2   B   0.111150543280802   0.055577475972498   0.875000000000000   1.0000000
B2   B   0.611100599298467   0.555489705260563   0.875000000000000   1.0000000
B2   B   0.444474468756046   0.055611308992115   0.875000000000000   1.0000000
B2   B   0.944403541514025   0.555530685910150   0.875000000000000   1.0000000
B2   B   0.111348947480210   0.555367980482443   0.375000000000000   1.0000000
B2   B   0.777758401478927   0.055586046894608   0.875000000000000   1.0000000
B2   B   0.279420752016374   0.057444000517018   0.375000000000000   1.0000000
B2   B   0.444870063954094   0.552140481996748   0.375000000000000   1.0000000
B2   B   0.776299731661461   0.553046693770867   0.375000000000000   1.0000000
B2   B   0.610347857019759   0.055997321251950   0.375000000000000   1.0000000
B2   B   0.444461347469862   0.555532444589277   0.875000000000000   1.0000000
B2   B   0.943651966405319   0.055039706476626   0.375000000000000   1.0000000
B2   B   0.277777519188607   0.722231438136515   0.875000000000000   1.0000000
B2   B   0.111142015160109   0.222249441469228   0.875000000000000   1.0000000
B2   B   0.444512934535555   0.222274956819862   0.875000000000000   1.0000000
B2   B   0.611097795743628   0.722185009754974   0.875000000000000   1.0000000
B2   B   0.944418729634359   0.722177029401853   0.875000000000000   1.0000000
B2   B   0.777741145822546   0.222266793628622   0.875000000000000   1.0000000
B2   B   0.111673811722725   0.722266019678764   0.375000000000000   1.0000000
B2   B   0.444182567313287   0.720507797932081   0.375000000000000   1.0000000
B2   B   0.276902384018294   0.223131116185625   0.375000000000000   1.0000000
B2   B   0.779033467216844   0.723062304408128   0.375000000000000   1.0000000
B2   B   0.610257990036312   0.225315299648451   0.375000000000000   1.0000000
B2   B   0.943403065883962   0.221852900482819   0.375000000000000   1.0000000
B2   B   0.111113933065541   0.388907511053573   0.875000000000000   1.0000000
B2   B   0.277798583175364   0.888914680759399   0.875000000000000   1.0000000
B2   B   0.611097854227227   0.888901232727958   0.875000000000000   1.0000000
B2   B   0.444501499470137   0.388891256571899   0.875000000000000   1.0000000
B2   B   0.944443885431876   0.888872428565038   0.875000000000000   1.0000000
B2   B   0.112021536062968   0.889450227325022   0.375000000000000   1.0000000
B2   B   0.777729422083918   0.388894787445216   0.875000000000000   1.0000000
B2   B   0.444244919097007   0.888918111121170   0.375000000000000   1.0000000
B2   B   0.275692959526940   0.386304608982934   0.375000000000000   1.0000000
B2   B   0.277895990745522   0.554679007234617   0.375000000000000   1.0000000
B2   B   0.777355407950845   0.888530621747598   0.375000000000000   1.0000000
B2   B   0.944022883573137   0.388760700810771   0.375000000000000   1.0000000
B2   B   0.111093608784117   0.555555340626813   0.875000000000000   1.0000000
B2   B   0.277837737063379   0.055599363102069   0.875000000000000   1.0000000
B2   B   0.777732367948459   0.555486831226529   0.875000000000000   1.0000000
B2   B   0.611097820220232   0.055606120475692   0.875000000000000   1.0000000
B2   B   0.944448927983392   0.055572209891525   0.875000000000000   1.0000000
B2   B   0.055541060184968   0.111092986693883   0.124997821967650   1.0000000
B2   B   0.555614674561269   0.610940401917142   0.125150568680818   1.0000000
B2   B   0.389043492078260   0.111367853105030   0.125532431272986   1.0000000
B2   B   0.888669508793620   0.610957584136189   0.125374720591973   1.0000000
B2   B   0.722186107307669   0.111201371180162   0.125145257911319   1.0000000
B2   B   0.055481730315116   0.777755661381241   0.624940025956477   1.0000000
B2   B   0.388910294160125   0.777832516105887   0.624972703582049   1.0000000
B2   B   0.222255379137148   0.277722563031679   0.624851607480455   1.0000000
B2   B   0.722227398911575   0.777703734051132   0.624967292147871   1.0000000
B2   B   0.555664204990809   0.278017506605868   0.623164710781161   1.0000000
B2   B   0.888750195365776   0.277758000500118   0.624869365003401   1.0000000
B2   B   0.222198520212712   0.777826286202040   0.125035790721474   1.0000000
B2   B   0.055489466506396   0.277726299387562   0.125003148372573   1.0000000
B2   B   0.389069680786081   0.277851891528883   0.125930170873723   1.0000000
B2   B   0.555586434480761   0.777763269687991   0.125021300972919   1.0000000
B2   B   0.888833013644936   0.777701065905821   0.125066198097210   1.0000000
B2   B   0.722080038826806   0.277846498194230   0.125769564092068   1.0000000
B2   B   0.055553795630581   0.944455525955136   0.624975878261534   1.0000000
B2   B   0.388962535875736   0.944636572746472   0.624871868559670   1.0000000
B2   B   0.222216961381496   0.444361339321587   0.624909509783140   1.0000000
B2   B   0.555597846805835   0.444204282865067   0.623730303853345   1.0000000
B2   B   0.722218677271878   0.944465823081608   0.624981075831153   1.0000000
B2   B   0.888612562757401   0.444335584009106   0.624566538911058   1.0000000
B2   B   0.055418015901320   0.444378082908989   0.125058064752733   1.0000000
B2   B   0.222271773324958   0.944561442789285   0.125077200193541   1.0000000
B2   B   0.555589499166572   0.944571784955201   0.125075737183917   1.0000000
B2   B   0.389021384325575   0.444285306908952   0.125552366901316   1.0000000
B2   B   0.888873823343777   0.944422416435964   0.125001414341753   1.0000000
B2   B   0.721914831176246   0.444263533466492   0.126535367915729   1.0000000
B2   B   0.222172161875844   0.611077715183341   0.624980742044724   1.0000000
B2   B   0.055541060184968   0.111092986693883   0.625002178032350   1.0000000
B2   B   0.555614674561269   0.610940401917142   0.624849431319182   1.0000000
B2   B   0.389043492078260   0.111367853105030   0.624467568727015   1.0000000
B2   B   0.888669508793620   0.610957584136189   0.624625279408028   1.0000000
B2   B   0.055391797413126   0.611039228864088   0.125097318718541   1.0000000
B2   B   0.722186107307669   0.111201371180162   0.624854742088681   1.0000000
B2   B   0.222297517030167   0.111183835924863   0.125180418145120   1.0000000
B2   B   0.388932592559045   0.611034648871015   0.125087460210877   1.0000000
B2   B   0.722145755488053   0.610904012941510   0.125359853666058   1.0000000
B2   B   0.555627211530263   0.111370755405298   0.125504352437068   1.0000000
B2   B   0.388932592559045   0.611034648871015   0.624912539789123   1.0000000
B2   B   0.888841822431272   0.111107770866170   0.125012603416885   1.0000000
B2   B   0.222198520212712   0.777826286202040   0.624964209278526   1.0000000
B2   B   0.055489466506396   0.277726299387562   0.624996851627428   1.0000000
B2   B   0.389069680786081   0.277851891528883   0.624069829126278   1.0000000
B2   B   0.555586434480761   0.777763269687991   0.624978699027080   1.0000000
B2   B   0.888833013644936   0.777701065905821   0.624933801902790   1.0000000
B2   B   0.722080038826806   0.277846498194230   0.624230435907933   1.0000000
B2   B   0.055481730315116   0.777755661381241   0.125059974043523   1.0000000
B2   B   0.388910294160125   0.777832516105887   0.125027296417950   1.0000000
B2   B   0.222255379137148   0.277722563031679   0.125148392519547   1.0000000
B2   B   0.722227398911575   0.777703734051132   0.125032707852130   1.0000000
B2   B   0.555664204990809   0.278017506605868   0.126835289218839   1.0000000
B2   B   0.888750195365776   0.277758000500118   0.125130634996599   1.0000000
B2   B   0.055418015901320   0.444378082908989   0.624941935247268   1.0000000
B2   B   0.222271773324958   0.944561442789285   0.624922799806459   1.0000000
B2   B   0.555589499166572   0.944571784955201   0.624924262816083   1.0000000
B2   B   0.389021384325575   0.444285306908952   0.624447633098685   1.0000000
B2   B   0.888873823343777   0.944422416435964   0.624998585658247   1.0000000
B2   B   0.055553795630581   0.944455525955136   0.125024121738467   1.0000000
B2   B   0.721914831176246   0.444263533466492   0.623464632084271   1.0000000
B2   B   0.388962535875736   0.944636572746472   0.125128131440330   1.0000000
B2   B   0.222216961381496   0.444361339321587   0.125090490216861   1.0000000
B2   B   0.222172161875844   0.611077715183341   0.125019257955277   1.0000000
B2   B   0.555597846805835   0.444204282865067   0.126269696146654   1.0000000
B2   B   0.722218677271878   0.944465823081608   0.125018924168847   1.0000000
B2   B   0.888612562757401   0.444335584009106   0.125433461088943   1.0000000
B2   B   0.055391797413126   0.611039228864088   0.624902681281458   1.0000000
B2   B   0.222297517030167   0.111183835924863   0.624819581854880   1.0000000
B2   B   0.722145755488053   0.610904012941510   0.624640146333942   1.0000000
B2   B   0.555627211530263   0.111370755405298   0.624495647562932   1.0000000
B2   B   0.888841822431272   0.111107770866170   0.624987396583116   1.0000000


