data_1
_audit_creation_method   'vasp2cif'
_cell_length_a    17.52789999999977
_cell_length_b    17.52789999999977
_cell_length_c    15.0
_cell_angle_alpha    90.0
_cell_angle_beta    90.0
_cell_angle_gamma    119.99999999999916

_symmetry_space_group_name_H-M    'P 1'
loop_
_atom_site_label
_atom_site_type_symbol
_atom_site_fract_x
_atom_site_fract_y
_atom_site_fract_z
_atom_site_occupancy
B2   B   0.904416778848444   0.952861741225101   0.111000824908304   1.0000000
B2   B   0.905723476041638   0.096930126410606   0.111038069849679   1.0000000
B2   B   0.905694666192057   0.239842041173764   0.111075829848359   1.0000000
B2   B   0.905183164803529   0.382285656116843   0.111003081720609   1.0000000
B2   B   0.904421454151332   0.524460511341666   0.110984537636357   1.0000000
B2   B   0.902004937498905   0.666421621241949   0.111045478732855   1.0000000
B2   B   0.902665864868936   0.808819320539062   0.111045789630220   1.0000000
B2   B   0.046437829883201   0.951101690893856   0.110979664043764   1.0000000
B2   B   0.047193694914407   0.094704998003841   0.110982839380660   1.0000000
B2   B   0.048533011373963   0.238973447496359   0.111008578073104   1.0000000
B2   B   0.049145543105076   0.382193448920456   0.111020545356584   1.0000000
B2   B   0.048866036553683   0.524385505292477   0.111003265830847   1.0000000
B2   B   0.047486225402880   0.666173073587268   0.111006603030536   1.0000000
B2   B   0.046464983730411   0.808316932712764   0.110988456065270   1.0000000
B2   B   0.189561901192792   0.950388572906288   0.111016471035943   1.0000000
B2   B   0.189290223253539   0.093082251151866   0.111034518813333   1.0000000
B2   B   0.189529034479355   0.236188243012200   0.110977544142233   1.0000000
B2   B   0.192385074837574   0.381389777243442   0.110985456386586   1.0000000
B2   B   0.193417223606592   0.524599499983029   0.111022919789166   1.0000000
B2   B   0.193060612651259   0.666186357912426   0.111027643555506   1.0000000
B2   B   0.190628449028046   0.808182472459332   0.110979983089489   1.0000000
B2   B   0.333365520060923   0.950749229618116   0.111027002767984   1.0000000
B2   B   0.332126124833803   0.092437086773380   0.111067712271242   1.0000000
B2   B   0.331584913414274   0.233794369812033   0.111041024398984   1.0000000
B2   B   0.331947960556973   0.375929278826086   0.111073776992818   1.0000000
B2   B   0.337487655426304   0.525531797464288   0.111008915697411   1.0000000
B2   B   0.340046655378872   0.666313453442816   0.111059181719973   1.0000000
B2   B   0.334852003678859   0.808383709182514   0.111019101222077   1.0000000
B2   B   0.477032026529503   0.952603780184597   0.110992037425766   1.0000000
B2   B   0.475993502045572   0.094832544399287   0.110982568890252   1.0000000
B2   B   0.474462420445894   0.236246040542603   0.111022699378685   1.0000000
B2   B   0.492711054839158   0.669898259361266   0.111135140222141   1.0000000
B2   B   0.478790560968688   0.810320979528813   0.111034208861874   1.0000000
B2   B   0.620467880278875   0.955265281909452   0.110984006337926   1.0000000
B2   B   0.619580601473732   0.096990778097768   0.110980292091702   1.0000000
B2   B   0.618657382758315   0.239250916857236   0.110997688434506   1.0000000
B2   B   0.617514026845400   0.382792453926152   0.111039637192950   1.0000000
B2   B   0.616725693926643   0.525660970280884   0.111168335392609   1.0000000
B2   B   0.607860612393413   0.670465069396973   0.111130295556169   1.0000000
B2   B   0.622119395626969   0.815061163402715   0.110993345284759   1.0000000
B2   B   0.763476988192917   0.955375988898311   0.110989787518177   1.0000000
B2   B   0.762938020716959   0.097660791766933   0.111039287699037   1.0000000
B2   B   0.762252983930107   0.239978663925925   0.111041825444361   1.0000000
B2   B   0.761152011962718   0.382482195097320   0.111002668326076   1.0000000
B2   B   0.760321379304859   0.524822845367777   0.111043039665729   1.0000000
B2   B   0.755433268492100   0.666908814892803   0.111069914453175   1.0000000
B2   B   0.760793616530081   0.810918342478633   0.111019568907924   1.0000000
C2   C   0.472085170802921   0.375310530194636   0.111303386865226   1.0000000
C2   C   0.467701037984807   0.508756331021138   0.110864594821372   1.0000000
C2   C   0.516790807546286   0.468850675013168   0.111358527404840   1.0000000
N2   N   0.951387421854191   0.904364859533523   0.110988029796676   1.0000000
N2   N   0.952518374458641   0.048310123803053   0.110986210617619   1.0000000
N2   N   0.953531751180868   0.192222753872259   0.111036101145173   1.0000000
N2   N   0.953575889896444   0.335019631828660   0.111018767663236   1.0000000
N2   N   0.953080007925517   0.477315870532794   0.110958634258588   1.0000000
N2   N   0.951448161677967   0.619431462352152   0.110997678403663   1.0000000
N2   N   0.950903201860766   0.761490590224374   0.111022677074045   1.0000000
N2   N   0.094357271640184   0.903556522790227   0.110957863443716   1.0000000
N2   N   0.094477247983291   0.046560346195482   0.110980194710623   1.0000000
N2   N   0.095097359574734   0.190054458544864   0.110959509779706   1.0000000
N2   N   0.097116620387527   0.334434678197884   0.110981261160748   1.0000000
N2   N   0.097559290436803   0.477297601622469   0.110994306998824   1.0000000
N2   N   0.096805023415212   0.619306224190236   0.111000594655771   1.0000000
N2   N   0.095047554210828   0.761212934126953   0.110964236592463   1.0000000
N2   N   0.237958419346472   0.903438499007143   0.110981031374245   1.0000000
N2   N   0.237090823107759   0.045675031801449   0.111040803687350   1.0000000
N2   N   0.237226290322607   0.188596127119302   0.110992412403578   1.0000000
N2   N   0.238146169815056   0.331312219503938   0.110977601115480   1.0000000
N2   N   0.241908237900504   0.477038242686581   0.110993843396704   1.0000000
N2   N   0.242727518138938   0.619340340689994   0.111022164672908   1.0000000
N2   N   0.239319792879810   0.761181001110435   0.110995055807213   1.0000000
N2   N   0.381626135100387   0.903921485043269   0.110999270766461   1.0000000
N2   N   0.380627259166467   0.046148944452360   0.111021038090245   1.0000000
N2   N   0.379541472325920   0.187604976095860   0.111040941808417   1.0000000
N2   N   0.381067864927248   0.329489686764125   0.111094730447707   1.0000000
N2   N   0.380442774977556   0.471415811636607   0.110960127381304   1.0000000
N2   N   0.391147322370576   0.619651153825721   0.111055337051029   1.0000000
N2   N   0.383536753902110   0.761515016676952   0.111030590443214   1.0000000
N2   N   0.525257040259930   0.906059716366636   0.110983082415004   1.0000000
N2   N   0.524202537989587   0.048254813851838   0.110947336944541   1.0000000
N2   N   0.523221198162397   0.190537647664658   0.110959113624648   1.0000000
N2   N   0.519764749568440   0.331964700934509   0.111082624941760   1.0000000
N2   N   0.527733065776342   0.764647009597652   0.111019720638524   1.0000000
N2   N   0.669006989398675   0.909416041078874   0.110964682109192   1.0000000
N2   N   0.667746752783377   0.050387942835294   0.110988639710833   1.0000000
N2   N   0.666794506908614   0.192333040653398   0.110993358469429   1.0000000
N2   N   0.664907453060033   0.334638319749998   0.110980088101482   1.0000000
N2   N   0.665201935022333   0.477559731483003   0.111053453462922   1.0000000
N2   N   0.657756561977386   0.620534414457245   0.111082833431119   1.0000000
N2   N   0.666532249089689   0.765550581495484   0.110979524004995   1.0000000
N2   N   0.809803003588553   0.906570153872096   0.110985669013400   1.0000000
N2   N   0.810966530636090   0.050486125472435   0.111010417106082   1.0000000
N2   N   0.810424787723462   0.192852737777675   0.111062830001714   1.0000000
N2   N   0.809453645345556   0.335100120801633   0.110999872612201   1.0000000
N2   N   0.808840058763810   0.477420607172310   0.110982051743848   1.0000000
N2   N   0.805703401958775   0.619816699595626   0.111049299503090   1.0000000
N2   N   0.807225266340025   0.762118698007764   0.111039448425381   1.0000000


