data_1
_audit_creation_method   'vasp2cif'
_cell_length_a    14.93631414619966
_cell_length_b    14.936314146199727
_cell_length_c    13.341276283792837
_cell_angle_alpha    90.0
_cell_angle_beta    90.0
_cell_angle_gamma    119.99999999999984

_symmetry_space_group_name_H-M    'P 1'
loop_
_atom_site_label
_atom_site_type_symbol
_atom_site_fract_x
_atom_site_fract_y
_atom_site_fract_z
_atom_site_occupancy
C2   C   0.446510739429666   0.391175529406000   0.375000000000000   1.0000000
N2   N   0.546423497069754   0.440118985102937   0.375000000000000   1.0000000
N2   N   0.111101452021680   0.055546900517189   0.125063817901551   1.0000000
N2   N   0.611102478229204   0.555518199586148   0.125244096589057   1.0000000
N2   N   0.444446005888889   0.055565427479774   0.125019313891994   1.0000000
N2   N   0.944436879027497   0.555546837259502   0.124992665353079   1.0000000
N2   N   0.777782484301000   0.055538314166519   0.125022669894517   1.0000000
N2   N   0.111102366155730   0.722217569868376   0.624994222133552   1.0000000
N2   N   0.444438246035471   0.722203763553326   0.624934895502796   1.0000000
N2   N   0.277770094619073   0.222216282311607   0.624807314671276   1.0000000
N2   N   0.777777998304930   0.722213889618738   0.624964159888477   1.0000000
N2   N   0.611127070999926   0.222222937869764   0.624912045266399   1.0000000
N2   N   0.944452782560650   0.222207421595649   0.624972832508705   1.0000000
N2   N   0.277771120884632   0.722216591552096   0.125029059752593   1.0000000
N2   N   0.111105875103547   0.222206484929059   0.125089133242551   1.0000000
N2   N   0.444431157288173   0.222230011509504   0.125110809065646   1.0000000
N2   N   0.611104757211394   0.722189107178341   0.125074958025301   1.0000000
N2   N   0.944440276821497   0.722222975047326   0.124993667715391   1.0000000
N2   N   0.777790243472900   0.222205932086526   0.124998667566030   1.0000000
N2   N   0.111105336549302   0.888890472237324   0.624978494764775   1.0000000
N2   N   0.444441293993986   0.888888158455814   0.624982812209976   1.0000000
N2   N   0.277783655609160   0.388871677970311   0.624813645063869   1.0000000
N2   N   0.611134217524263   0.388882314560239   0.625602086302589   1.0000000
N2   N   0.777778741784955   0.888875166677925   0.624967062311706   1.0000000
N2   N   0.944446480462814   0.388877642484707   0.624989939491923   1.0000000
N2   N   0.111112503892371   0.388879448409050   0.125074678138959   1.0000000
N2   N   0.277775265532265   0.888893368363801   0.125011753526042   1.0000000
N2   N   0.611105826894027   0.888872481771111   0.125034770139574   1.0000000
N2   N   0.444433398856640   0.388868362913767   0.125050860096229   1.0000000
N2   N   0.944445562834113   0.888889026695971   0.125016468463398   1.0000000
N2   N   0.777788195742885   0.388869048285488   0.125025513480188   1.0000000
N2   N   0.277773966285262   0.555540953721193   0.624918200803625   1.0000000
N2   N   0.111101452021680   0.055546900517189   0.624936182098449   1.0000000
N2   N   0.611102478229204   0.555518199586148   0.624755903410942   1.0000000
N2   N   0.444446005888889   0.055565427479774   0.624980686108007   1.0000000
N2   N   0.944436879027497   0.555546837259502   0.625007334646920   1.0000000
N2   N   0.111101996140784   0.555546986479901   0.125021280928867   1.0000000
N2   N   0.777782484301000   0.055538314166519   0.624977330105484   1.0000000
N2   N   0.277770833323943   0.055560791561090   0.125046314566309   1.0000000
N2   N   0.444441573791988   0.555523930692721   0.125148979517253   1.0000000
N2   N   0.777780582011855   0.555562673715851   0.125030527639513   1.0000000
N2   N   0.611112402568797   0.055552018244175   0.125016814177063   1.0000000
N2   N   0.444441573791988   0.555523930692721   0.624851020482748   1.0000000
N2   N   0.944446189813921   0.055542248108872   0.125038298300247   1.0000000
N2   N   0.277771120884632   0.722216591552096   0.624970940247407   1.0000000
N2   N   0.111105875103547   0.222206484929059   0.624910866757449   1.0000000
N2   N   0.444431157288173   0.222230011509504   0.624889190934353   1.0000000
N2   N   0.611104757211394   0.722189107178341   0.624925041974699   1.0000000
N2   N   0.944440276821497   0.722222975047326   0.625006332284610   1.0000000
N2   N   0.777790243472900   0.222205932086526   0.625001332433970   1.0000000
N2   N   0.111102366155730   0.722217569868376   0.125005777866449   1.0000000
N2   N   0.444438246035471   0.722203763553326   0.125065104497205   1.0000000
N2   N   0.277770094619073   0.222216282311607   0.125192685328724   1.0000000
N2   N   0.777777998304930   0.722213889618738   0.125035840111523   1.0000000
N2   N   0.611127070999926   0.222222937869764   0.125087954733601   1.0000000
N2   N   0.944452782560650   0.222207421595649   0.125027167491295   1.0000000
N2   N   0.111112503892371   0.388879448409050   0.624925321861041   1.0000000
N2   N   0.277775265532265   0.888893368363801   0.624988246473959   1.0000000
N2   N   0.611105826894027   0.888872481771111   0.624965229860426   1.0000000
N2   N   0.444433398856640   0.388868362913767   0.624949139903771   1.0000000
N2   N   0.944445562834113   0.888889026695971   0.624983531536602   1.0000000
N2   N   0.111105336549302   0.888890472237324   0.125021505235225   1.0000000
N2   N   0.777788195742885   0.388869048285488   0.624974486519812   1.0000000
N2   N   0.444441293993986   0.888888158455814   0.125017187790024   1.0000000
N2   N   0.277783655609160   0.388871677970311   0.125186354936131   1.0000000
N2   N   0.277773966285262   0.555540953721193   0.125081799196375   1.0000000
N2   N   0.611134217524263   0.388882314560239   0.124397913697411   1.0000000
N2   N   0.777778741784955   0.888875166677925   0.125032937688294   1.0000000
N2   N   0.944446480462814   0.388877642484707   0.125010060508077   1.0000000
N2   N   0.111101996140784   0.555546986479901   0.624978719071133   1.0000000
N2   N   0.277770833323943   0.055560791561090   0.624953685433691   1.0000000
N2   N   0.777780582011855   0.555562673715851   0.624969472360486   1.0000000
N2   N   0.611112402568797   0.055552018244175   0.624983185822937   1.0000000
N2   N   0.944446189813921   0.055542248108872   0.624961701699753   1.0000000
N2   N   0.055354229538560   0.111062970995619   0.375000000000000   1.0000000
N2   N   0.554735517922615   0.610444557721341   0.375000000000000   1.0000000
N2   N   0.388635774945969   0.112863193624557   0.375000000000000   1.0000000
N2   N   0.889491870524305   0.611879999890357   0.375000000000000   1.0000000
N2   N   0.722235707104233   0.110660083537042   0.375000000000000   1.0000000
N2   N   0.055556246261524   0.777775762566860   0.875000000000000   1.0000000
N2   N   0.388888386528971   0.777778079538945   0.875000000000000   1.0000000
N2   N   0.222222032735435   0.277777775997624   0.875000000000000   1.0000000
N2   N   0.722217230016868   0.777774992205433   0.875000000000000   1.0000000
N2   N   0.555552089355852   0.277769651388941   0.875000000000000   1.0000000
N2   N   0.888889435610581   0.277776862310000   0.875000000000000   1.0000000
N2   N   0.222524496201939   0.778303134642935   0.375000000000000   1.0000000
N2   N   0.055613882062880   0.277768636901347   0.375000000000000   1.0000000
N2   N   0.390156425009648   0.283593872389307   0.375000000000000   1.0000000
N2   N   0.555179977717573   0.777419023756517   0.375000000000000   1.0000000
N2   N   0.887935898343021   0.777175563764313   0.375000000000000   1.0000000
N2   N   0.723116273830937   0.277107100141183   0.375000000000000   1.0000000
N2   N   0.055554347848891   0.944444097295206   0.875000000000000   1.0000000
N2   N   0.388889392759556   0.944441022069294   0.875000000000000   1.0000000
N2   N   0.222222846586318   0.444444672154437   0.875000000000000   1.0000000
N2   N   0.555551002796391   0.444445504234913   0.875000000000000   1.0000000
N2   N   0.722217584223597   0.944441104231294   0.875000000000000   1.0000000
N2   N   0.888893049855041   0.444443835669280   0.875000000000000   1.0000000
N2   N   0.056540623477326   0.444616745905527   0.375000000000000   1.0000000
N2   N   0.222475054333948   0.945356071754767   0.375000000000000   1.0000000
N2   N   0.555364137546645   0.944372303741734   0.375000000000000   1.0000000
N2   N   0.389903294575370   0.442287858088760   0.375000000000000   1.0000000
N2   N   0.888529731058041   0.944086911983711   0.375000000000000   1.0000000
N2   N   0.733346994583322   0.449535314410479   0.375000000000000   1.0000000
N2   N   0.222220723996138   0.611109171235847   0.875000000000000   1.0000000
N2   N   0.055552990880246   0.111107456536245   0.875000000000000   1.0000000
N2   N   0.555549844179645   0.611107537614892   0.875000000000000   1.0000000
N2   N   0.388887889065642   0.111104772761351   0.875000000000000   1.0000000
N2   N   0.888891045032085   0.611109035157466   0.875000000000000   1.0000000
N2   N   0.056079585368622   0.611519130473659   0.375000000000000   1.0000000
N2   N   0.722217528151979   0.111105386771004   0.875000000000000   1.0000000
N2   N   0.223160485708940   0.112997395769814   0.375000000000000   1.0000000
N2   N   0.388806553973989   0.610195552292902   0.375000000000000   1.0000000
N2   N   0.719100749493622   0.609131166353317   0.375000000000000   1.0000000
N2   N   0.555525521686173   0.111166949998136   0.375000000000000   1.0000000
N2   N   0.388887588779830   0.611110282281060   0.875000000000000   1.0000000
N2   N   0.888805237261662   0.110806715215326   0.375000000000000   1.0000000
N2   N   0.222222591460864   0.777775230246220   0.875000000000000   1.0000000
N2   N   0.055555108788537   0.277776174787082   0.875000000000000   1.0000000
N2   N   0.388888054540730   0.277777403541911   0.875000000000000   1.0000000
N2   N   0.555551263015100   0.777775746305144   0.875000000000000   1.0000000
N2   N   0.888888815865370   0.777779098345693   0.875000000000000   1.0000000
N2   N   0.722221219333578   0.277772801013673   0.875000000000000   1.0000000
N2   N   0.055822302810459   0.778326464889615   0.375000000000000   1.0000000
N2   N   0.388918341541505   0.777791021112204   0.375000000000000   1.0000000
N2   N   0.221533222308668   0.277878634778105   0.375000000000000   1.0000000
N2   N   0.721522777395021   0.777173175645777   0.375000000000000   1.0000000
N2   N   0.551327163586626   0.270307340536263   0.375000000000000   1.0000000
N2   N   0.889382553958557   0.277609011177782   0.375000000000000   1.0000000
N2   N   0.055556150102537   0.444443624346344   0.875000000000000   1.0000000
N2   N   0.222222088324134   0.944441320589123   0.875000000000000   1.0000000
N2   N   0.555551230956540   0.944441812869683   0.875000000000000   1.0000000
N2   N   0.388889048727614   0.444446394020228   0.875000000000000   1.0000000
N2   N   0.888887632280958   0.944443608965296   0.875000000000000   1.0000000
N2   N   0.055612379697050   0.944865186165535   0.375000000000000   1.0000000
N2   N   0.722224627815591   0.444442840584390   0.875000000000000   1.0000000
N2   N   0.388999021499825   0.945291469654895   0.375000000000000   1.0000000
N2   N   0.223240200455183   0.444396582860555   0.375000000000000   1.0000000
N2   N   0.222606757299652   0.611234480941760   0.375000000000000   1.0000000
N2   N   0.721916704372560   0.943987927767230   0.375000000000000   1.0000000
N2   N   0.890542374370593   0.444720251061586   0.375000000000000   1.0000000
N2   N   0.055556569061119   0.611107027058963   0.875000000000000   1.0000000
N2   N   0.222219950587493   0.111108655572752   0.875000000000000   1.0000000
N2   N   0.722217423319029   0.611108550125544   0.875000000000000   1.0000000
N2   N   0.555551719342274   0.111102585145637   0.875000000000000   1.0000000
N2   N   0.888887182727535   0.111107239874493   0.875000000000000   1.0000000
B2   B   0.111410110351385   0.056146862770834   0.375000000000000   1.0000000
B2   B   0.607275033359775   0.551662784301085   0.375000000000000   1.0000000
B2   B   0.444533224754914   0.056885014307623   0.375000000000000   1.0000000
B2   B   0.944754709751439   0.555846033263068   0.375000000000000   1.0000000
B2   B   0.777602991057465   0.055125573890155   0.375000000000000   1.0000000
B2   B   0.111101185325799   0.722211755818755   0.875000000000000   1.0000000
B2   B   0.444446875411746   0.722230460727816   0.875000000000000   1.0000000
B2   B   0.277800977407154   0.222223682369230   0.875000000000000   1.0000000
B2   B   0.777768874432829   0.722196216363029   0.875000000000000   1.0000000
B2   B   0.611110979545163   0.222237270542458   0.875000000000000   1.0000000
B2   B   0.944425497879134   0.222222743848850   0.875000000000000   1.0000000
B2   B   0.277891059433633   0.722510231435919   0.375000000000000   1.0000000
B2   B   0.110243925852697   0.221831515801673   0.375000000000000   1.0000000
B2   B   0.444881187223638   0.225384323938693   0.375000000000000   1.0000000
B2   B   0.610717548397574   0.721969531390272   0.375000000000000   1.0000000
B2   B   0.944531504714394   0.722565384052062   0.375000000000000   1.0000000
B2   B   0.778224646151814   0.221717841511459   0.375000000000000   1.0000000
B2   B   0.111109273561955   0.888876840783271   0.875000000000000   1.0000000
B2   B   0.444447128452177   0.888899511454231   0.875000000000000   1.0000000
B2   B   0.277789677142753   0.388894818415568   0.875000000000000   1.0000000
B2   B   0.611123717245476   0.388883587693363   0.875000000000000   1.0000000
B2   B   0.777768027149229   0.888878784685563   0.875000000000000   1.0000000
B2   B   0.944422729262808   0.388891446642342   0.875000000000000   1.0000000
B2   B   0.111649212528191   0.388843613117514   0.375000000000000   1.0000000
B2   B   0.277989454163713   0.889580834222231   0.375000000000000   1.0000000
B2   B   0.610826342763613   0.888723684837212   0.375000000000000   1.0000000
B2   B   0.944012546983375   0.888497230478233   0.375000000000000   1.0000000
B2   B   0.778643368647212   0.387382420650011   0.375000000000000   1.0000000
B2   B   0.277776740862294   0.555563649028161   0.875000000000000   1.0000000
B2   B   0.111111497271280   0.055546189083612   0.875000000000000   1.0000000
B2   B   0.611118072012147   0.555532378485520   0.875000000000000   1.0000000
B2   B   0.444457016447201   0.055565283578623   0.875000000000000   1.0000000
B2   B   0.944424193137519   0.555543244968624   0.875000000000000   1.0000000
B2   B   0.111454752433810   0.555814721341617   0.375000000000000   1.0000000
B2   B   0.777763931187920   0.055557325315378   0.875000000000000   1.0000000
B2   B   0.277984034523834   0.056555629178821   0.375000000000000   1.0000000
B2   B   0.444886359881296   0.555285188431711   0.375000000000000   1.0000000
B2   B   0.777132027431156   0.556463871472157   0.375000000000000   1.0000000
B2   B   0.611044787274563   0.055564268277847   0.375000000000000   1.0000000
B2   B   0.444458286589349   0.555558887168007   0.875000000000000   1.0000000
B2   B   0.944084504204665   0.055140836201545   0.375000000000000   1.0000000
B2   B   0.277775396012342   0.722227123700603   0.875000000000000   1.0000000
B2   B   0.111104745279082   0.222218111549502   0.875000000000000   1.0000000
B2   B   0.444482445722872   0.222233044016458   0.875000000000000   1.0000000
B2   B   0.611110883915738   0.722213313227755   0.875000000000000   1.0000000
B2   B   0.944430333767965   0.722199335855952   0.875000000000000   1.0000000
B2   B   0.777759639482236   0.222231637599438   0.875000000000000   1.0000000
B2   B   0.111355238033241   0.722646562396531   0.375000000000000   1.0000000
B2   B   0.444257456078286   0.721909609418175   0.375000000000000   1.0000000
B2   B   0.277799498873291   0.224133166492139   0.375000000000000   1.0000000
B2   B   0.776153766113580   0.720686889819248   0.375000000000000   1.0000000
B2   B   0.612705708302818   0.223236568174039   0.375000000000000   1.0000000
B2   B   0.944394036969647   0.221936838695082   0.375000000000000   1.0000000
B2   B   0.111098429281598   0.388890964109448   0.875000000000000   1.0000000
B2   B   0.277784403316059   0.888890169993547   0.875000000000000   1.0000000
B2   B   0.611106066460022   0.888894139442771   0.875000000000000   1.0000000
B2   B   0.444483090907760   0.388893822525382   0.875000000000000   1.0000000
B2   B   0.944436156842455   0.888873671221671   0.875000000000000   1.0000000
B2   B   0.111296783363137   0.889398524642229   0.375000000000000   1.0000000
B2   B   0.777759080976806   0.388890311741699   0.875000000000000   1.0000000
B2   B   0.444317530846368   0.889241799186283   0.375000000000000   1.0000000
B2   B   0.277447739464767   0.387921285212071   0.375000000000000   1.0000000
B2   B   0.277917827679629   0.555574979102639   0.375000000000000   1.0000000
B2   B   0.777378637795658   0.888388611230271   0.375000000000000   1.0000000
B2   B   0.945351790258842   0.388845133082517   0.375000000000000   1.0000000
B2   B   0.111096123663334   0.555554305129690   0.875000000000000   1.0000000
B2   B   0.277796004097817   0.055555122414434   0.875000000000000   1.0000000
B2   B   0.777762138183638   0.555524455419400   0.875000000000000   1.0000000
B2   B   0.611105984456026   0.055566982122768   0.875000000000000   1.0000000
B2   B   0.944431555066423   0.055547362668848   0.875000000000000   1.0000000
B2   B   0.055528398631348   0.111068686918037   0.124990960969361   1.0000000
B2   B   0.555636764396460   0.611052832220989   0.125045483910080   1.0000000
B2   B   0.388958085135885   0.111187245424888   0.125052661062754   1.0000000
B2   B   0.888796317821991   0.611043548358928   0.125062611331655   1.0000000
B2   B   0.722220568201400   0.111134125772187   0.124996790109082   1.0000000
B2   B   0.055512569692944   0.777747009967252   0.625003582943120   1.0000000
B2   B   0.388885112922490   0.777796701136673   0.625002691739061   1.0000000
B2   B   0.222204737401826   0.277732641044809   0.625037948678439   1.0000000
B2   B   0.722248586794563   0.777742598847595   0.624996252745097   1.0000000
B2   B   0.555687697449895   0.277950115213501   0.624568343728802   1.0000000
B2   B   0.888852405771069   0.277777466012911   0.625008611619910   1.0000000
B2   B   0.222195371881342   0.777783201071273   0.124995962462587   1.0000000
B2   B   0.055517856329913   0.277759600840491   0.124985750871083   1.0000000
B2   B   0.388999880429519   0.277794452075518   0.124929135205293   1.0000000
B2   B   0.555577119779916   0.777770638684888   0.124990815657259   1.0000000
B2   B   0.888870869301125   0.777734872939844   0.125001928930716   1.0000000
B2   B   0.722198741842424   0.277826187010116   0.125092910744256   1.0000000
B2   B   0.055534717374560   0.944407029656645   0.625001954420199   1.0000000
B2   B   0.388908363321834   0.944495453770412   0.625001990771077   1.0000000
B2   B   0.222197198374479   0.444438164805737   0.625015008964234   1.0000000
B2   B   0.555700503103841   0.444320975108953   0.624699095497630   1.0000000
B2   B   0.722228908646304   0.944438027498697   0.625002542038907   1.0000000
B2   B   0.888786097991617   0.444411691851256   0.624939151516694   1.0000000
B2   B   0.055495935139566   0.444437142528786   0.124994560036014   1.0000000
B2   B   0.222219767834657   0.944444219399350   0.124994725473802   1.0000000
B2   B   0.555566712023055   0.944477375497045   0.124995025674081   1.0000000
B2   B   0.388971192871976   0.444395230948772   0.124825403510940   1.0000000
B2   B   0.888881617022032   0.944414319257993   0.124995150158667   1.0000000
B2   B   0.722102356984724   0.444366523189933   0.125407337586018   1.0000000
B2   B   0.222182943265034   0.611114272570429   0.625008415054593   1.0000000
B2   B   0.055528398631348   0.111068686918037   0.625009039030639   1.0000000
B2   B   0.555636764396460   0.611052832220989   0.624954516089921   1.0000000
B2   B   0.388958085135885   0.111187245424888   0.624947338937247   1.0000000
B2   B   0.888796317821991   0.611043548358928   0.624937388668345   1.0000000
B2   B   0.055478943524629   0.611085749715285   0.125000075017529   1.0000000
B2   B   0.722220568201400   0.111134125772187   0.625003209890918   1.0000000
B2   B   0.222217920196727   0.111073294511116   0.124999112621011   1.0000000
B2   B   0.388902460651235   0.611107212113617   0.124988390863403   1.0000000
B2   B   0.722230944417925   0.611019628681802   0.125157051125067   1.0000000
B2   B   0.555602778185262   0.111216041636967   0.125075602879249   1.0000000
B2   B   0.388902460651235   0.611107212113617   0.625011609136597   1.0000000
B2   B   0.888872440992566   0.111096490844160   0.124993809942695   1.0000000
B2   B   0.222195371881342   0.777783201071273   0.625004037537413   1.0000000
B2   B   0.055517856329913   0.277759600840491   0.625014249128917   1.0000000
B2   B   0.388999880429519   0.277794452075518   0.625070864794707   1.0000000
B2   B   0.555577119779916   0.777770638684888   0.625009184342742   1.0000000
B2   B   0.888870869301125   0.777734872939844   0.624998071069284   1.0000000
B2   B   0.722198741842424   0.277826187010116   0.624907089255745   1.0000000
B2   B   0.055512569692944   0.777747009967252   0.124996417056879   1.0000000
B2   B   0.388885112922490   0.777796701136673   0.124997308260939   1.0000000
B2   B   0.222204737401826   0.277732641044809   0.124962051321561   1.0000000
B2   B   0.722248586794563   0.777742598847595   0.125003747254903   1.0000000
B2   B   0.555687697449895   0.277950115213501   0.125431656271198   1.0000000
B2   B   0.888852405771069   0.277777466012911   0.124991388380090   1.0000000
B2   B   0.055495935139566   0.444437142528786   0.625005439963987   1.0000000
B2   B   0.222219767834657   0.944444219399350   0.625005274526198   1.0000000
B2   B   0.555566712023055   0.944477375497045   0.625004974325918   1.0000000
B2   B   0.388971192871976   0.444395230948772   0.625174596489060   1.0000000
B2   B   0.888881617022032   0.944414319257993   0.625004849841334   1.0000000
B2   B   0.055534717374560   0.944407029656645   0.124998045579801   1.0000000
B2   B   0.722102356984724   0.444366523189933   0.624592662413982   1.0000000
B2   B   0.388908363321834   0.944495453770412   0.124998009228923   1.0000000
B2   B   0.222197198374479   0.444438164805737   0.124984991035766   1.0000000
B2   B   0.222182943265034   0.611114272570429   0.124991584945407   1.0000000
B2   B   0.555700503103841   0.444320975108953   0.125300904502370   1.0000000
B2   B   0.722228908646304   0.944438027498697   0.124997457961093   1.0000000
B2   B   0.888786097991617   0.444411691851256   0.125060848483305   1.0000000
B2   B   0.055478943524629   0.611085749715285   0.624999924982470   1.0000000
B2   B   0.222217920196727   0.111073294511116   0.625000887378990   1.0000000
B2   B   0.722230944417925   0.611019628681802   0.624842948874933   1.0000000
B2   B   0.555602778185262   0.111216041636967   0.624924397120751   1.0000000
B2   B   0.888872440992566   0.111096490844160   0.625006190057305   1.0000000


