data_1
_audit_creation_method   'vasp2cif'
_cell_length_a    14.93631414619966
_cell_length_b    14.936314146199727
_cell_length_c    13.341276283792837
_cell_angle_alpha    90.0
_cell_angle_beta    90.0
_cell_angle_gamma    119.99999999999984

_symmetry_space_group_name_H-M    'P 1'
loop_
_atom_site_label
_atom_site_type_symbol
_atom_site_fract_x
_atom_site_fract_y
_atom_site_fract_z
_atom_site_occupancy
N2   N   0.111111306459296   0.055551056253980   0.125284696761808   1.0000000
N2   N   0.611129167578724   0.555561405739261   0.126687059936491   1.0000000
N2   N   0.444431927809476   0.055552546694904   0.125341932303417   1.0000000
N2   N   0.944476441749690   0.555577241515183   0.125241816264280   1.0000000
N2   N   0.777763697374868   0.055548515354102   0.125222549674804   1.0000000
N2   N   0.111130190940799   0.722231762137064   0.624778973205840   1.0000000
N2   N   0.444431927809476   0.722212714447907   0.624658067696582   1.0000000
N2   N   0.277777799664913   0.222232478020676   0.623803169534367   1.0000000
N2   N   0.777798209106441   0.722219057246449   0.624576589157084   1.0000000
N2   N   0.611105286144947   0.222232106769253   0.624488485263208   1.0000000
N2   N   0.944441851839573   0.222228578508629   0.624818621607711   1.0000000
N2   N   0.277775703733807   0.722216961706325   0.125266282620781   1.0000000
N2   N   0.111105034829689   0.222219184081509   0.125376916063893   1.0000000
N2   N   0.444455605582831   0.222233369833046   0.126316633383228   1.0000000
N2   N   0.611105286144947   0.722206512709022   0.125511514736792   1.0000000
N2   N   0.944476441749690   0.722232533567844   0.125241816264280   1.0000000
N2   N   0.777772457248885   0.222231755812180   0.125199188507118   1.0000000
N2   N   0.111126395999372   0.888893684438647   0.624743768760250   1.0000000
N2   N   0.444426606453527   0.888879969893428   0.624825487269524   1.0000000
N2   N   0.277777799664913   0.388878654977566   0.623803169534367   1.0000000
N2   N   0.611129167578724   0.388901095172792   0.623312940063509   1.0000000
N2   N   0.777772457248885   0.888874034770034   0.624800811492883   1.0000000
N2   N   0.944459313593261   0.388907684530726   0.624816233260831   1.0000000
N2   N   0.111111306459296   0.388893583538645   0.125284696761808   1.0000000
N2   N   0.277775703733807   0.888892075360808   0.125266282620781   1.0000000
N2   N   0.611086567089718   0.888869909095862   0.125206794829651   1.0000000
N2   N   0.444470608845585   0.388901971089457   0.126146182845968   1.0000000
N2   N   0.944459313593261   0.888884962395862   0.125183766739169   1.0000000
N2   N   0.777798209106441   0.388912485193321   0.125423410842917   1.0000000
N2   N   0.277785319684064   0.555546252623334   0.624376572850524   1.0000000
N2   N   0.111111306459296   0.055551056253980   0.624715303238192   1.0000000
N2   N   0.611129167578724   0.555561405739261   0.623312940063509   1.0000000
N2   N   0.444431927809476   0.055552546694904   0.624658067696582   1.0000000
N2   N   0.944476441749690   0.555577241515183   0.624758183735720   1.0000000
N2   N   0.111126395999372   0.555566044894055   0.125256231239751   1.0000000
N2   N   0.777763697374868   0.055548515354102   0.624777450325196   1.0000000
N2   N   0.277785319684064   0.055572400394065   0.125623427149476   1.0000000
N2   N   0.444455605582831   0.555555569083119   0.126316633383228   1.0000000
N2   N   0.777809328644184   0.555571330988760   0.125666425469744   1.0000000
N2   N   0.611086567089718   0.055549991327184   0.125206794829651   1.0000000
N2   N   0.444455605582831   0.555555569083119   0.623683366616771   1.0000000
N2   N   0.944441851839573   0.055546606664280   0.125181378392289   1.0000000
N2   N   0.277775703733807   0.722216961706325   0.624733717379220   1.0000000
N2   N   0.111105034829689   0.222219184081509   0.624623083936108   1.0000000
N2   N   0.444455605582831   0.222233369833046   0.623683366616771   1.0000000
N2   N   0.611105286144947   0.722206512709022   0.624488485263208   1.0000000
N2   N   0.944476441749690   0.722232533567844   0.624758183735720   1.0000000
N2   N   0.777772457248885   0.222231755812180   0.624800811492883   1.0000000
N2   N   0.111130190940799   0.722231762137064   0.125221026794160   1.0000000
N2   N   0.444431927809476   0.722212714447907   0.125341932303417   1.0000000
N2   N   0.277777799664913   0.222232478020676   0.126196830465633   1.0000000
N2   N   0.777798209106441   0.722219057246449   0.125423410842917   1.0000000
N2   N   0.611105286144947   0.222232106769253   0.125511514736792   1.0000000
N2   N   0.944441851839573   0.222228578508629   0.125181378392289   1.0000000
N2   N   0.111111306459296   0.388893583538645   0.624715303238192   1.0000000
N2   N   0.277775703733807   0.888892075360808   0.624733717379220   1.0000000
N2   N   0.611086567089718   0.888869909095862   0.624793205170349   1.0000000
N2   N   0.444470608845585   0.388901971089457   0.623853817154032   1.0000000
N2   N   0.944459313593261   0.888884962395862   0.624816233260831   1.0000000
N2   N   0.111126395999372   0.888893684438647   0.125256231239751   1.0000000
N2   N   0.777798209106441   0.388912485193321   0.624576589157084   1.0000000
N2   N   0.444426606453527   0.888879969893428   0.125174512730476   1.0000000
N2   N   0.277777799664913   0.388878654977566   0.126196830465633   1.0000000
N2   N   0.277785319684064   0.555546252623334   0.125623427149476   1.0000000
N2   N   0.611129167578724   0.388901095172792   0.126687059936491   1.0000000
N2   N   0.777772457248885   0.888874034770034   0.125199188507118   1.0000000
N2   N   0.944459313593261   0.388907684530726   0.125183766739169   1.0000000
N2   N   0.111126395999372   0.555566044894055   0.624743768760250   1.0000000
N2   N   0.277785319684064   0.055572400394065   0.624376572850524   1.0000000
N2   N   0.777809328644184   0.555571330988760   0.624333574530257   1.0000000
N2   N   0.611086567089718   0.055549991327184   0.624793205170349   1.0000000
N2   N   0.944441851839573   0.055546606664280   0.624818621607711   1.0000000
N2   N   0.053109423692074   0.109685218828698   0.375000000000000   1.0000000
N2   N   0.555305495156475   0.606160846119534   0.375000000000000   1.0000000
N2   N   0.389582504738111   0.114311135549783   0.375000000000000   1.0000000
N2   N   0.891711811274970   0.612522572304156   0.375000000000000   1.0000000
N2   N   0.721263681465984   0.111041037453956   0.375000000000000   1.0000000
N2   N   0.055553238037027   0.777780088009065   0.875000000000000   1.0000000
N2   N   0.388899552840697   0.777782361816489   0.875000000000000   1.0000000
N2   N   0.222221249392635   0.277777291362985   0.875000000000000   1.0000000
N2   N   0.722223963275344   0.777781790002705   0.875000000000000   1.0000000
N2   N   0.555558846640310   0.277779335839566   0.875000000000000   1.0000000
N2   N   0.888891274645714   0.277777159391201   0.875000000000000   1.0000000
N2   N   0.223595646895277   0.778464490114307   0.375000000000000   1.0000000
N2   N   0.053109423692074   0.276757538196712   0.375000000000000   1.0000000
N2   N   0.384695398918195   0.278676514606910   0.375000000000000   1.0000000
N2   N   0.555460656695502   0.775863509599574   0.375000000000000   1.0000000
N2   N   0.889996669159548   0.778206381366892   0.375000000000000   1.0000000
N2   N   0.721953135899828   0.278684958810216   0.375000000000000   1.0000000
N2   N   0.055555218229345   0.944449449402574   0.875000000000000   1.0000000
N2   N   0.388899552840697   0.944450524357543   0.875000000000000   1.0000000
N2   N   0.222224384033644   0.444441118104061   0.875000000000000   1.0000000
N2   N   0.555558627409238   0.444445980371284   0.875000000000000   1.0000000
N2   N   0.722226083680562   0.944447945400846   0.875000000000000   1.0000000
N2   N   0.888886957703224   0.444438970694445   0.875000000000000   1.0000000
N2   N   0.055299228300068   0.444255811359704   0.375000000000000   1.0000000
N2   N   0.223282709267338   0.945967739049350   0.375000000000000   1.0000000
N2   N   0.555418142861982   0.944375738097654   0.375000000000000   1.0000000
N2   N   0.384695398918195   0.439352217644621   0.375000000000000   1.0000000
N2   N   0.887738086171217   0.943495391690375   0.375000000000000   1.0000000
N2   N   0.725151509481629   0.447067676989816   0.375000000000000   1.0000000
N2   N   0.222226485723990   0.611106671487771   0.875000000000000   1.0000000
N2   N   0.055554028003452   0.111111402548105   0.875000000000000   1.0000000
N2   N   0.555558846640310   0.611112844134080   0.875000000000000   1.0000000
N2   N   0.388895885478525   0.111117597246871   0.875000000000000   1.0000000
N2   N   0.888881384018807   0.611107358676075   0.875000000000000   1.0000000
N2   N   0.057255646018683   0.611717644788919   0.375000000000000   1.0000000
N2   N   0.722226083680562   0.111111471613052   0.875000000000000   1.0000000
N2   N   0.220568197390678   0.110996263218316   0.375000000000000   1.0000000
N2   N   0.389582504738111   0.608604702521671   0.375000000000000   1.0000000
N2   N   0.725151509481629   0.611417165825148   0.375000000000000   1.0000000
N2   N   0.555460656695502   0.112930480429263   0.375000000000000   1.0000000
N2   N   0.388895885478525   0.611111621564996   0.875000000000000   1.0000000
N2   N   0.887146507553781   0.110239920443562   0.375000000000000   1.0000000
N2   N   0.222228432778742   0.777780883056039   0.875000000000000   1.0000000
N2   N   0.055554028003452   0.277775958788682   0.875000000000000   1.0000000
N2   N   0.388891260541805   0.277777614955344   0.875000000000000   1.0000000
N2   N   0.555562043730047   0.777782701541765   0.875000000000000   1.0000000
N2   N   0.888886957703224   0.777781320342114   0.875000000000000   1.0000000
N2   N   0.722223963275344   0.277775506605974   0.875000000000000   1.0000000
N2   N   0.057255646018683   0.778871334563099   0.375000000000000   1.0000000
N2   N   0.389609552483642   0.777274941442307   0.375000000000000   1.0000000
N2   N   0.217648240121064   0.275490786727199   0.375000000000000   1.0000000
N2   N   0.721953135899828   0.776601510422946   0.375000000000000   1.0000000
N2   N   0.555305495156475   0.282477982370277   0.375000000000000   1.0000000
N2   N   0.887738086171217   0.277576027814178   0.375000000000000   1.0000000
N2   N   0.055555218229345   0.444439102160100   0.875000000000000   1.0000000
N2   N   0.222226485723990   0.944453147569554   0.875000000000000   1.0000000
N2   N   0.555563618461754   0.944448475897542   0.875000000000000   1.0000000
N2   N   0.388891260541805   0.444446978919797   0.875000000000000   1.0000000
N2   N   0.888891274645714   0.944447448587848   0.875000000000000   1.0000000
N2   N   0.055299228300068   0.944376750273692   0.375000000000000   1.0000000
N2   N   0.722215381420710   0.444439252732839   0.875000000000000   1.0000000
N2   N   0.389609552483642   0.945667944374670   0.375000000000000   1.0000000
N2   N   0.220568197390678   0.442905267505698   0.375000000000000   1.0000000
N2   N   0.223282709267338   0.610648303551323   0.375000000000000   1.0000000
N2   N   0.721263681465984   0.943555977345364   0.375000000000000   1.0000000
N2   N   0.889996669159548   0.445123621125992   0.375000000000000   1.0000000
N2   N   0.055553238037027   0.611106483361299   0.875000000000000   1.0000000
N2   N   0.222224384033644   0.111116599262919   0.875000000000000   1.0000000
N2   N   0.722215381420710   0.611109462021208   0.875000000000000   1.0000000
N2   N   0.555562043730047   0.111112675521616   0.875000000000000   1.0000000
N2   N   0.888892484810413   0.111112909071878   0.875000000000000   1.0000000
B2   B   0.108835960047054   0.054589416286933   0.375000000000000   1.0000000
B2   B   0.619084057846561   0.562848223379476   0.375000000000000   1.0000000
B2   B   0.444675374243124   0.056633841059982   0.375000000000000   1.0000000
B2   B   0.946837569319315   0.556326129813506   0.375000000000000   1.0000000
B2   B   0.776367334300731   0.054850333817033   0.375000000000000   1.0000000
B2   B   0.111117836412373   0.722225584872851   0.875000000000000   1.0000000
B2   B   0.444455714094256   0.722267216629546   0.875000000000000   1.0000000
B2   B   0.277718983902416   0.222178720000560   0.875000000000000   1.0000000
B2   B   0.777815537193274   0.722276447919139   0.875000000000000   1.0000000
B2   B   0.611141038392492   0.222186548761694   0.875000000000000   1.0000000
B2   B   0.944423214061476   0.222204621801693   0.875000000000000   1.0000000
B2   B   0.278617357541921   0.722315092995355   0.375000000000000   1.0000000
B2   B   0.106091516569245   0.219712424951287   0.375000000000000   1.0000000
B2   B   0.444657248509265   0.224516975960522   0.375000000000000   1.0000000
B2   B   0.611678762498566   0.721613639110629   0.375000000000000   1.0000000
B2   B   0.946837569319315   0.723844772839144   0.375000000000000   1.0000000
B2   B   0.777079869897463   0.221873194847728   0.375000000000000   1.0000000
B2   B   0.111101777140506   0.888881523174403   0.875000000000000   1.0000000
B2   B   0.444457681113732   0.888895507223530   0.875000000000000   1.0000000
B2   B   0.277718983902416   0.388873597235184   0.875000000000000   1.0000000
B2   B   0.611141282950204   0.388878136498205   0.875000000000000   1.0000000
B2   B   0.777798050068731   0.888930739690140   0.875000000000000   1.0000000
B2   B   0.944448919107332   0.388873745582816   0.875000000000000   1.0000000
B2   B   0.108835960047054   0.387579877093449   0.375000000000000   1.0000000
B2   B   0.278617357541921   0.889635597879895   0.375000000000000   1.0000000
B2   B   0.610687470387447   0.888299712763666   0.375000000000000   1.0000000
B2   B   0.944486405663127   0.889266417134585   0.375000000000000   1.0000000
B2   B   0.780283647933794   0.389076254552528   0.375000000000000   1.0000000
B2   B   0.277754261999000   0.555570707431861   0.875000000000000   1.0000000
B2   B   0.111068553112211   0.055528905797331   0.875000000000000   1.0000000
B2   B   0.611141282950204   0.555596479785328   0.875000000000000   1.0000000
B2   B   0.444455714094256   0.055521830798046   0.875000000000000   1.0000000
B2   B   0.944467720103214   0.555556960203567   0.875000000000000   1.0000000
B2   B   0.111841663472762   0.555408505752074   0.375000000000000   1.0000000
B2   B   0.777789501723022   0.055561417528179   0.875000000000000   1.0000000
B2   B   0.277410198465388   0.056265129622327   0.375000000000000   1.0000000
B2   B   0.444657248509265   0.553473605882079   0.375000000000000   1.0000000
B2   B   0.782966215094074   0.558149774213705   0.375000000000000   1.0000000
B2   B   0.610687470387447   0.055721090957109   0.375000000000000   1.0000000
B2   B   0.444446219387202   0.555604231984989   0.875000000000000   1.0000000
B2   B   0.942027465043016   0.054277315271783   0.375000000000000   1.0000000
B2   B   0.277777719518907   0.722234886111264   0.875000000000000   1.0000000
B2   B   0.111050089625109   0.222191711479219   0.875000000000000   1.0000000
B2   B   0.444446219387202   0.222175320735549   0.875000000000000   1.0000000
B2   B   0.611141038392492   0.722287822964126   0.875000000000000   1.0000000
B2   B   0.944467720103214   0.722244093232982   0.875000000000000   1.0000000
B2   B   0.777798050068731   0.222200643711920   0.875000000000000   1.0000000
B2   B   0.112667594036858   0.723000463685094   0.375000000000000   1.0000000
B2   B   0.444675374243124   0.721374866516477   0.375000000000000   1.0000000
B2   B   0.272011819632690   0.220322162741361   0.375000000000000   1.0000000
B2   B   0.780283647933794   0.724540726714596   0.375000000000000   1.0000000
B2   B   0.611678762498566   0.223398456721267   0.375000000000000   1.0000000
B2   B   0.942027465043016   0.221083483104568   0.375000000000000   1.0000000
B2   B   0.111068553112211   0.388872980648209   0.875000000000000   1.0000000
B2   B   0.277777719518907   0.888876166740973   0.875000000000000   1.0000000
B2   B   0.611134329791418   0.888924211398507   0.875000000000000   1.0000000
B2   B   0.444442793480588   0.388888063406958   0.875000000000000   1.0000000
B2   B   0.944448919107332   0.888908506857846   0.875000000000000   1.0000000
B2   B   0.111841663472762   0.889766491054016   0.375000000000000   1.0000000
B2   B   0.777815537193274   0.388872422607463   0.875000000000000   1.0000000
B2   B   0.444640086607561   0.888986709970444   0.375000000000000   1.0000000
B2   B   0.272011819632690   0.385022990224658   0.375000000000000   1.0000000
B2   B   0.277410198465388   0.554478402176398   0.375000000000000   1.0000000
B2   B   0.619084057846561   0.389569167800413   0.375000000000000   1.0000000
B2   B   0.777079869897463   0.888540008383064   0.375000000000000   1.0000000
B2   B   0.944486405663127   0.388553321861870   0.375000000000000   1.0000000
B2   B   0.111101777140506   0.555553587299433   0.875000000000000   1.0000000
B2   B   0.277754261999000   0.055516887900474   0.875000000000000   1.0000000
B2   B   0.777821589377616   0.555577461355476   0.875000000000000   1.0000000
B2   B   0.611134329791418   0.055543451726240   0.875000000000000   1.0000000
B2   B   0.944423214061476   0.055551925593118   0.875000000000000   1.0000000
B2   B   0.055449792986790   0.111020730656146   0.124727042838571   1.0000000
B2   B   0.555599874648174   0.611281396338946   0.125186195807778   1.0000000
B2   B   0.388830055840070   0.110917707289774   0.125010332187177   1.0000000
B2   B   0.889112152028552   0.611222742680947   0.124719348297106   1.0000000
B2   B   0.722225333447341   0.111083125505696   0.124759919299913   1.0000000
B2   B   0.055631559863916   0.777788318514003   0.625223494499944   1.0000000
B2   B   0.388838383442479   0.777823725861979   0.625228780482717   1.0000000
B2   B   0.222040037635489   0.277686685484412   0.624907626901527   1.0000000
B2   B   0.722316927414185   0.777911221569179   0.625274177137925   1.0000000
B2   B   0.555599874648174   0.277651811642564   0.624813804192222   1.0000000
B2   B   0.888907604070414   0.277786646357083   0.625266351911880   1.0000000
B2   B   0.222202315751984   0.777767824542659   0.124814102655668   1.0000000
B2   B   0.055449792986790   0.277762395663980   0.124727042838571   1.0000000
B2   B   0.388844815922968   0.277736965391734   0.125337492548265   1.0000000
B2   B   0.555541400751420   0.777888352477057   0.124731238608850   1.0000000
B2   B   0.889035443751058   0.777863576232343   0.124712381628758   1.0000000
B2   B   0.722316927414185   0.277739039178342   0.124725822862075   1.0000000
B2   B   0.055538136028318   0.944379409888091   0.625244006163563   1.0000000
B2   B   0.388838383442479   0.944347990913836   0.625228780482717   1.0000000
B2   B   0.222073228480316   0.444476545634311   0.625000844740486   1.0000000
B2   B   0.555543363254192   0.444438348293760   0.624382046086657   1.0000000
B2   B   0.722225333447341   0.944475541274980   0.625240080700087   1.0000000
B2   B   0.889035443751058   0.444505200852049   0.625287618371242   1.0000000
B2   B   0.055538136028318   0.444492059473555   0.124755993836438   1.0000000
B2   B   0.222160736881858   0.944303500334148   0.124850779205374   1.0000000
B2   B   0.555513870252835   0.944423601793083   0.124739268116275   1.0000000
B2   B   0.388844815922968   0.444441183864570   0.125337492548265   1.0000000
B2   B   0.888907604070414   0.944454291046667   0.124733648088119   1.0000000
B2   B   0.722444333425558   0.444508784835131   0.124985027821567   1.0000000
B2   B   0.222160736881858   0.611190569881046   0.625149220794626   1.0000000
B2   B   0.055449792986790   0.111020730656146   0.625272957161429   1.0000000
B2   B   0.555599874648174   0.611281396338946   0.624813804192222   1.0000000
B2   B   0.388830055840070   0.110917707289774   0.624989667812823   1.0000000
B2   B   0.889112152028552   0.611222742680947   0.625280651702894   1.0000000
B2   B   0.055631559863916   0.611176574683248   0.124776505500055   1.0000000
B2   B   0.722225333447341   0.111083125505696   0.625240080700087   1.0000000
B2   B   0.222073228480316   0.110930016179340   0.124999155259514   1.0000000
B2   B   0.388830055840070   0.611245681883638   0.125010332187177   1.0000000
B2   B   0.722444333425558   0.611268881923764   0.124985027821567   1.0000000
B2   B   0.555541400751420   0.110986381607699   0.124731238608850   1.0000000
B2   B   0.388830055840070   0.611245681883638   0.624989667812823   1.0000000
B2   B   0.888856951401287   0.111095142367315   0.124770828479823   1.0000000
B2   B   0.222202315751984   0.777767824542659   0.625185897344332   1.0000000
B2   B   0.055449792986790   0.277762395663980   0.625272957161429   1.0000000
B2   B   0.388844815922968   0.277736965391734   0.624662507451736   1.0000000
B2   B   0.555541400751420   0.777888352477057   0.625268761391150   1.0000000
B2   B   0.889035443751058   0.777863576232343   0.625287618371242   1.0000000
B2   B   0.722316927414185   0.277739039178342   0.625274177137925   1.0000000
B2   B   0.055631559863916   0.777788318514003   0.124776505500055   1.0000000
B2   B   0.388838383442479   0.777823725861979   0.124771219517283   1.0000000
B2   B   0.222040037635489   0.277686685484412   0.125092373098474   1.0000000
B2   B   0.722316927414185   0.777911221569179   0.124725822862075   1.0000000
B2   B   0.555599874648174   0.277651811642564   0.125186195807778   1.0000000
B2   B   0.888907604070414   0.277786646357083   0.124733648088119   1.0000000
B2   B   0.055538136028318   0.444492059473555   0.625244006163563   1.0000000
B2   B   0.222160736881858   0.944303500334148   0.625149220794626   1.0000000
B2   B   0.555513870252835   0.944423601793083   0.625260731883724   1.0000000
B2   B   0.388844815922968   0.444441183864570   0.624662507451736   1.0000000
B2   B   0.888907604070414   0.944454291046667   0.625266351911880   1.0000000
B2   B   0.055538136028318   0.944379409888091   0.124755993836438   1.0000000
B2   B   0.722444333425558   0.444508784835131   0.625014972178432   1.0000000
B2   B   0.388838383442479   0.944347990913836   0.124771219517283   1.0000000
B2   B   0.222073228480316   0.444476545634311   0.124999155259514   1.0000000
B2   B   0.222160736881858   0.611190569881046   0.124850779205374   1.0000000
B2   B   0.555543363254192   0.444438348293760   0.125617953913343   1.0000000
B2   B   0.722225333447341   0.944475541274980   0.124759919299913   1.0000000
B2   B   0.889035443751058   0.444505200852049   0.124712381628758   1.0000000
B2   B   0.055631559863916   0.611176574683248   0.625223494499944   1.0000000
B2   B   0.222073228480316   0.110930016179340   0.625000844740486   1.0000000
B2   B   0.722444333425558   0.611268881923764   0.625014972178432   1.0000000
B2   B   0.555541400751420   0.110986381607699   0.625268761391150   1.0000000
B2   B   0.888856951401287   0.111095142367315   0.625229171520177   1.0000000


