data_1
_audit_creation_method   'vasp2cif'
_cell_length_a    14.93631414619966
_cell_length_b    14.936314146199727
_cell_length_c    13.341276283792837
_cell_angle_alpha    90.0
_cell_angle_beta    90.0
_cell_angle_gamma    119.99999999999984

_symmetry_space_group_name_H-M    'P 1'
loop_
_atom_site_label
_atom_site_type_symbol
_atom_site_fract_x
_atom_site_fract_y
_atom_site_fract_z
_atom_site_occupancy
Sn2   Sn   0.488264213489872   0.410798773411596   0.375000000000000   1.0000000
N2   N   0.111291612723806   0.055632061069095   0.124673890212143   1.0000000
N2   N   0.611293381293220   0.555689936784949   0.125868380229510   1.0000000
N2   N   0.444571830755384   0.055586349611451   0.124740116086463   1.0000000
N2   N   0.944579913829156   0.555625430480839   0.125201834347232   1.0000000
N2   N   0.777942154525848   0.055637743929595   0.125179938532747   1.0000000
N2   N   0.111232673580484   0.722283003456906   0.624751053172868   1.0000000
N2   N   0.444571830755384   0.722318814477282   0.625259883913543   1.0000000
N2   N   0.278004315127334   0.222317263476989   0.624233962361214   1.0000000
N2   N   0.777936712243854   0.722312544522489   0.625082246000179   1.0000000
N2   N   0.611246527373851   0.222257538280342   0.625281989928985   1.0000000
N2   N   0.944633353034840   0.222318988717030   0.625004657278357   1.0000000
N2   N   0.277900154013258   0.722297696757851   0.125065215987656   1.0000000
N2   N   0.111344843596069   0.222339088464696   0.124812387318632   1.0000000
N2   N   0.444609793370083   0.222270452587068   0.125811020990358   1.0000000
N2   N   0.611246527373851   0.722322322426849   0.124718010071023   1.0000000
N2   N   0.944579913829156   0.722287816681659   0.125201834347232   1.0000000
N2   N   0.777933444241752   0.222295777208257   0.125007472019157   1.0000000
N2   N   0.111246003183784   0.888941826710266   0.624943450929468   1.0000000
N2   N   0.444570835357592   0.888952084345459   0.624929349436427   1.0000000
N2   N   0.278004315127334   0.389020384983669   0.624233962361214   1.0000000
N2   N   0.611293381293220   0.388936777841609   0.624131619770493   1.0000000
N2   N   0.777933444241752   0.888971000366835   0.624992527980847   1.0000000
N2   N   0.944607609119476   0.388971628201432   0.624943150645401   1.0000000
N2   N   0.111291612723806   0.388992884988041   0.124673890212143   1.0000000
N2   N   0.277900154013258   0.888935790588725   0.125065215987656   1.0000000
N2   N   0.611248767043572   0.888970128924207   0.124991800695019   1.0000000
N2   N   0.444825980381224   0.389079656857272   0.132421958170551   1.0000000
N2   N   0.944607609119476   0.888969314251357   0.125056849354595   1.0000000
N2   N   0.777936712243854   0.388957501054698   0.124917753999823   1.0000000
N2   N   0.277924225403896   0.555660212707765   0.625187225164715   1.0000000
N2   N   0.111291612723806   0.055632061069095   0.625326109787854   1.0000000
N2   N   0.611293381293220   0.555689936784949   0.624131619770493   1.0000000
N2   N   0.444571830755384   0.055586349611451   0.625259883913542   1.0000000
N2   N   0.944579913829156   0.555625430480839   0.624798165652756   1.0000000
N2   N   0.111246003183784   0.555637509806837   0.125056549070523   1.0000000
N2   N   0.777942154525848   0.055637743929595   0.624820061467246   1.0000000
N2   N   0.277924225403896   0.055597346029470   0.124812774835287   1.0000000
N2   N   0.444609793370083   0.555672674116339   0.125811020990358   1.0000000
N2   N   0.777913485559189   0.555623409446272   0.125161741228580   1.0000000
N2   N   0.611248767043572   0.055611971452676   0.124991800695019   1.0000000
N2   N   0.444609793370083   0.555672674116339   0.624188979009643   1.0000000
N2   N   0.944633353034840   0.055647697651151   0.124995342721625   1.0000000
N2   N   0.277900154013258   0.722297696757851   0.624934784012358   1.0000000
N2   N   0.111344843596069   0.222339088464696   0.625187612681379   1.0000000
N2   N   0.444609793370083   0.222270452587068   0.624188979009643   1.0000000
N2   N   0.611246527373851   0.722322322426849   0.625281989928985   1.0000000
N2   N   0.944579913829156   0.722287816681659   0.624798165652756   1.0000000
N2   N   0.777933444241752   0.222295777208257   0.624992527980847   1.0000000
N2   N   0.111232673580484   0.722283003456906   0.125248946827127   1.0000000
N2   N   0.444571830755384   0.722318814477282   0.124740116086463   1.0000000
N2   N   0.278004315127334   0.222317263476989   0.125766037638794   1.0000000
N2   N   0.777936712243854   0.722312544522489   0.124917753999823   1.0000000
N2   N   0.611246527373851   0.222257538280342   0.124718010071023   1.0000000
N2   N   0.944633353034840   0.222318988717030   0.124995342721625   1.0000000
N2   N   0.111291612723806   0.388992884988041   0.625326109787854   1.0000000
N2   N   0.277900154013258   0.888935790588725   0.624934784012358   1.0000000
N2   N   0.611248767043572   0.888970128924207   0.625008199304981   1.0000000
N2   N   0.444825980381224   0.389079656857272   0.617578041829437   1.0000000
N2   N   0.944607609119476   0.888969314251357   0.624943150645401   1.0000000
N2   N   0.111246003183784   0.888941826710266   0.125056549070523   1.0000000
N2   N   0.777936712243854   0.388957501054698   0.625082246000179   1.0000000
N2   N   0.444570835357592   0.888952084345459   0.125070650563574   1.0000000
N2   N   0.278004315127334   0.389020384983669   0.125766037638794   1.0000000
N2   N   0.277924225403896   0.555660212707768   0.124812774835287   1.0000000
N2   N   0.611293381293220   0.388936777841609   0.125868380229510   1.0000000
N2   N   0.777933444241752   0.888971000366835   0.125007472019157   1.0000000
N2   N   0.944607609119476   0.388971628201432   0.125056849354595   1.0000000
N2   N   0.111246003183784   0.555637509806837   0.624943450929468   1.0000000
N2   N   0.277924225403896   0.055597346029470   0.625187225164715   1.0000000
N2   N   0.777913485559189   0.555623409446272   0.624838258771402   1.0000000
N2   N   0.611248767043572   0.055611971452676   0.625008199304981   1.0000000
N2   N   0.944633353034840   0.055647697651151   0.625004657278357   1.0000000
N2   N   0.056615624745142   0.111794923228519   0.375000000000000   1.0000000
N2   N   0.554378770305418   0.620346607866035   0.375000000000000   1.0000000
N2   N   0.386088031225968   0.102969658511723   0.375000000000000   1.0000000
N2   N   0.884805838203715   0.609069585768547   0.375000000000000   1.0000000
N2   N   0.722827434686703   0.110380848922836   0.375000000000000   1.0000000
N2   N   0.055563762259497   0.777786209368477   0.875000000000000   1.0000000
N2   N   0.388908850407506   0.777784600005788   0.875000000000000   1.0000000
N2   N   0.222239671595204   0.277786502464271   0.875000000000000   1.0000000
N2   N   0.722241543163968   0.777793009130430   0.875000000000000   1.0000000
N2   N   0.555575506179540   0.277789055096048   0.875000000000000   1.0000000
N2   N   0.888905883751975   0.277781310490686   0.875000000000000   1.0000000
N2   N   0.218953071705532   0.776143202519416   0.375000000000000   1.0000000
N2   N   0.056615624745142   0.278154034849967   0.375000000000000   1.0000000
N2   N   0.386224233422930   0.264489770443055   0.375000000000000   1.0000000
N2   N   0.554714751745492   0.781862711160985   0.375000000000000   1.0000000
N2   N   0.887784447988081   0.778053044369733   0.375000000000000   1.0000000
N2   N   0.722536855441194   0.275258104517977   0.375000000000000   1.0000000
N2   N   0.055566572823544   0.944455605211046   0.875000000000000   1.0000000
N2   N   0.388908850407506   0.944457583735064   0.875000000000000   1.0000000
N2   N   0.222238741310272   0.444442246361082   0.875000000000000   1.0000000
N2   N   0.555557289623290   0.444445311478310   0.875000000000000   1.0000000
N2   N   0.722238948956817   0.944455742584565   0.875000000000000   1.0000000
N2   N   0.888903344633218   0.444445514727979   0.875000000000000   1.0000000
N2   N   0.054232700259807   0.444133610282424   0.375000000000000   1.0000000
N2   N   0.219133358681481   0.941219969691068   0.375000000000000   1.0000000
N2   N   0.554745520330874   0.944039426832110   0.375000000000000   1.0000000
N2   N   0.386224233422935   0.455067796313231   0.375000000000000   1.0000000
N2   N   0.889533621894072   0.945625656584458   0.375000000000000   1.0000000
N2   N   0.720848015501442   0.441353129565370   0.375000000000000   1.0000000
N2   N   0.222238293907474   0.611109477420664   0.875000000000000   1.0000000
N2   N   0.055567319021542   0.111119394952860   0.875000000000000   1.0000000
N2   N   0.555575506179540   0.611119784416815   0.875000000000000   1.0000000
N2   N   0.388915136634837   0.111136608569886   0.875000000000000   1.0000000
N2   N   0.888896036631436   0.611114684982395   0.875000000000000   1.0000000
N2   N   0.052226197418510   0.609816145969955   0.375000000000000   1.0000000
N2   N   0.722238948956817   0.111116539705587   0.875000000000000   1.0000000
N2   N   0.220546986446037   0.108247283913894   0.375000000000000   1.0000000
N2   N   0.386088031225968   0.616451706047598   0.375000000000000   1.0000000
N2   N   0.720848015501442   0.612828219269409   0.375000000000000   1.0000000
N2   N   0.554714751745492   0.106185373917836   0.375000000000000   1.0000000
N2   N   0.388915136634837   0.611111861398284   0.875000000000000   1.0000000
N2   N   0.890013275398164   0.111673304365752   0.375000000000000   1.0000000
N2   N   0.222235225000994   0.777784279167168   0.875000000000000   1.0000000
N2   N   0.055567319021542   0.277781257402018   0.875000000000000   1.0000000
N2   N   0.388917472175793   0.277809063922835   0.875000000000000   1.0000000
N2   N   0.555576414081977   0.777790559608405   0.875000000000000   1.0000000
N2   N   0.888903344633218   0.777791163238567   0.875000000000000   1.0000000
N2   N   0.722241543163968   0.277781867366875   0.875000000000000   1.0000000
N2   N   0.052226197418510   0.775743384781894   0.375000000000000   1.0000000
N2   N   0.386438642698279   0.778612106154842   0.375000000000000   1.0000000
N2   N   0.224642623995738   0.278987978664544   0.375000000000000   1.0000000
N2   N   0.722536855441194   0.780612084256565   0.375000000000000   1.0000000
N2   N   0.554378770305418   0.267365495772680   0.375000000000000   1.0000000
N2   N   0.889533621894072   0.277241298642945   0.375000000000000   1.0000000
N2   N   0.055566572823544   0.444444300945824   0.875000000000000   1.0000000
N2   N   0.222238293907474   0.944462149820131   0.875000000000000   1.0000000
N2   N   0.555571399417788   0.944452366375565   0.875000000000000   1.0000000
N2   N   0.388917472175793   0.444441741586315   0.875000000000000   1.0000000
N2   N   0.888905883751975   0.944457906594605   0.875000000000000   1.0000000
N2   N   0.054232700259807   0.943432423310701   0.375000000000000   1.0000000
N2   N   0.722232482621283   0.444446150163070   0.875000000000000   1.0000000
N2   N   0.386438642698279   0.941159869876758   0.375000000000000   1.0000000
N2   N   0.220546986446037   0.445633035865475   0.375000000000000   1.0000000
N2   N   0.219133358681481   0.611246722323759   0.375000000000000   1.0000000
N2   N   0.722827434686703   0.945779919097193   0.375000000000000   1.0000000
N2   N   0.887784447988081   0.443064736951684   0.375000000000000   1.0000000
N2   N   0.055563762259497   0.611110886224329   0.875000000000000   1.0000000
N2   N   0.222238741310272   0.111129828282523   0.875000000000000   1.0000000
N2   N   0.722232482621283   0.611119665791537   0.875000000000000   1.0000000
N2   N   0.555576414081977   0.111119187806904   0.875000000000000   1.0000000
N2   N   0.888903178030890   0.111118255682115   0.875000000000000   1.0000000
B2   B   0.110063144761772   0.054304919803323   0.375000000000000   1.0000000
B2   B   0.614284442358691   0.573281494544268   0.375000000000000   1.0000000
B2   B   0.443245627461194   0.050321872883418   0.375000000000000   1.0000000
B2   B   0.941636602750863   0.554083096123292   0.375000000000000   1.0000000
B2   B   0.779177347779993   0.056255340556665   0.375000000000000   1.0000000
B2   B   0.111129436442207   0.722231384887771   0.875000000000000   1.0000000
B2   B   0.444459638141833   0.722263939263862   0.875000000000000   1.0000000
B2   B   0.277712173384377   0.222181256507928   0.875000000000000   1.0000000
B2   B   0.777843505208664   0.722307040614393   0.875000000000000   1.0000000
B2   B   0.611158937245784   0.222179445165229   0.875000000000000   1.0000000
B2   B   0.944451801552075   0.222212519397205   0.875000000000000   1.0000000
B2   B   0.275143740778626   0.721964041905852   0.375000000000000   1.0000000
B2   B   0.112831855792246   0.223082594562787   0.375000000000000   1.0000000
B2   B   0.441253916806346   0.210822526997274   0.375000000000000   1.0000000
B2   B   0.612078938194996   0.730313756861624   0.375000000000000   1.0000000
B2   B   0.941636602750863   0.720886839960895   0.375000000000000   1.0000000
B2   B   0.778994684624389   0.220836362856752   0.375000000000000   1.0000000
B2   B   0.111119981491707   0.888902066646167   0.875000000000000   1.0000000
B2   B   0.444464029889650   0.888898681611484   0.875000000000000   1.0000000
B2   B   0.277712173384377   0.388864250209778   0.875000000000000   1.0000000
B2   B   0.611169995771824   0.388860811837319   0.875000000000000   1.0000000
B2   B   0.777822329717244   0.888955587347776   0.875000000000000   1.0000000
B2   B   0.944473161170491   0.388872858355585   0.875000000000000   1.0000000
B2   B   0.110063144761774   0.389091558291781   0.375000000000000   1.0000000
B2   B   0.275143740778626   0.886513032206110   0.375000000000000   1.0000000
B2   B   0.611761746326978   0.891511327231757   0.375000000000000   1.0000000
B2   B   0.943897175814005   0.889257360073591   0.375000000000000   1.0000000
B2   B   0.778059792196068   0.386158275580112   0.375000000000000   1.0000000
B2   B   0.277761231524626   0.555558905592791   0.875000000000000   1.0000000
B2   B   0.111088462366791   0.055549016588962   0.875000000000000   1.0000000
B2   B   0.611169995771824   0.555642517267852   0.875000000000000   1.0000000
B2   B   0.444459638141833   0.055529032211342   0.875000000000000   1.0000000
B2   B   0.944490733567583   0.555561232352181   0.875000000000000   1.0000000
B2   B   0.108356439984107   0.554968358938605   0.375000000000000   1.0000000
B2   B   0.777810675812715   0.055572004573034   0.875000000000000   1.0000000
B2   B   0.274880451359628   0.051346097177394   0.375000000000000   1.0000000
B2   B   0.441253916806346   0.563764723142430   0.375000000000000   1.0000000
B2   B   0.774456256967020   0.553894795150168   0.375000000000000   1.0000000
B2   B   0.611761746326978   0.053583752428536   0.375000000000000   1.0000000
B2   B   0.444443059999592   0.555601230115900   0.875000000000000   1.0000000
B2   B   0.945702504430119   0.056649389772324   0.375000000000000   1.0000000
B2   B   0.277785483328588   0.722231732556109   0.875000000000000   1.0000000
B2   B   0.111068369819200   0.222200851576264   0.875000000000000   1.0000000
B2   B   0.444443059999592   0.222175163217014   0.875000000000000   1.0000000
B2   B   0.611158937245784   0.722312825413881   0.875000000000000   1.0000000
B2   B   0.944490733567583   0.722262834548728   0.875000000000000   1.0000000
B2   B   0.777822329717244   0.222200075702818   0.875000000000000   1.0000000
B2   B   0.108009853292593   0.720671593312963   0.375000000000000   1.0000000
B2   B   0.443245627461194   0.726257087911123   0.375000000000000   1.0000000
B2   B   0.276770219434423   0.219139553728375   0.375000000000000   1.0000000
B2   B   0.778059792196068   0.725234849949285   0.375000000000000   1.0000000
B2   B   0.612078938194996   0.215098514666723   0.375000000000000   1.0000000
B2   B   0.945702504430119   0.222386447991133   0.375000000000000   1.0000000
B2   B   0.111088462366791   0.388872779111158   0.875000000000000   1.0000000
B2   B   0.277785483328588   0.888887084105782   0.875000000000000   1.0000000
B2   B   0.611147362594623   0.888934349966914   0.875000000000000   1.0000000
B2   B   0.444400061534463   0.388866697433897   0.875000000000000   1.0000000
B2   B   0.944473161170491   0.888933636148229   0.875000000000000   1.0000000
B2   B   0.108356439984107   0.886721414378830   0.375000000000000   1.0000000
B2   B   0.777843505208664   0.388869797927617   0.875000000000000   1.0000000
B2   B   0.443357195734532   0.888345264533932   0.375000000000000   1.0000000
B2   B   0.276770219434423   0.390963999039377   0.375000000000000   1.0000000
B2   B   0.274880451359628   0.556867687515569   0.375000000000000   1.0000000
B2   B   0.614284442358691   0.374336281147787   0.375000000000000   1.0000000
B2   B   0.778994684624389   0.891491655100959   0.375000000000000   1.0000000
B2   B   0.943897175814005   0.387973149073738   0.375000000000000   1.0000000
B2   B   0.111119981491707   0.555551248178888   0.875000000000000   1.0000000
B2   B   0.277761231524626   0.055535659265171   0.875000000000000   1.0000000
B2   B   0.777848674522825   0.555591003928072   0.875000000000000   1.0000000
B2   B   0.611147362594623   0.055546345961049   0.875000000000000   1.0000000
B2   B   0.944451801552075   0.055572615488238   0.875000000000000   1.0000000
B2   B   0.055714521104910   0.111179373618052   0.124679481807613   1.0000000
B2   B   0.555685086623561   0.611462189623624   0.124898881287236   1.0000000
B2   B   0.388889504922127   0.110884663586503   0.124718866168271   1.0000000
B2   B   0.889244971854150   0.611289152593747   0.124873835242741   1.0000000
B2   B   0.722388450443282   0.111145201405673   0.124912947136140   1.0000000
B2   B   0.055768267134604   0.777877418490891   0.624975112504960   1.0000000
B2   B   0.388958351036477   0.777891003012208   0.625220051437586   1.0000000
B2   B   0.222285094689497   0.277809214011420   0.624647961122331   1.0000000
B2   B   0.722445899446472   0.778008737417966   0.625443401712586   1.0000000
B2   B   0.555685086623561   0.277556230333267   0.625101118712754   1.0000000
B2   B   0.889102296649290   0.277848965039973   0.625125076964194   1.0000000
B2   B   0.222336815894646   0.777835074614003   0.125001586779911   1.0000000
B2   B   0.055714521104910   0.277868480820206   0.124679481807613   1.0000000
B2   B   0.388735177377377   0.277303741951471   0.127586652667261   1.0000000
B2   B   0.555655420668464   0.777980860647992   0.124553492779066   1.0000000
B2   B   0.889185081839769   0.777974230616382   0.124817929393631   1.0000000
B2   B   0.722445899446472   0.277770495361848   0.124556598287409   1.0000000
B2   B   0.055735104017207   0.944517002360561   0.625232984559836   1.0000000
B2   B   0.388958351036477   0.944400681357596   0.625220051437586   1.0000000
B2   B   0.222283007154324   0.444593169061834   0.625237451504169   1.0000000
B2   B   0.556160344590109   0.444746838961719   0.623609782002001   1.0000000
B2   B   0.722388450443282   0.944576582370931   0.625087052863868   1.0000000
B2   B   0.889185081839769   0.444544184556716   0.625182070606374   1.0000000
B2   B   0.055735104017207   0.444551434989980   0.124767015440166   1.0000000
B2   B   0.222315094037299   0.944406524556247   0.124786548538437   1.0000000
B2   B   0.555665604334187   0.944499468833742   0.124875942575091   1.0000000
B2   B   0.388735177377377   0.444764768759253   0.127586652667261   1.0000000
B2   B   0.889102296649290   0.944586664942666   0.124874923035806   1.0000000
B2   B   0.722689132508590   0.444590874102814   0.124663804795280   1.0000000
B2   B   0.222315094037299   0.611241902814366   0.625213451461549   1.0000000
B2   B   0.055714521104910   0.111179373618052   0.625320518192386   1.0000000
B2   B   0.555685086623561   0.611462189623624   0.625101118712754   1.0000000
B2   B   0.388889504922127   0.110884663586503   0.625281133831744   1.0000000
B2   B   0.889244971854150   0.611289152593747   0.625126164757248   1.0000000
B2   B   0.055768267134604   0.611224181977039   0.125024887495050   1.0000000
B2   B   0.722388450443282   0.111145201405673   0.625087052863868   1.0000000
B2   B   0.222283007154324   0.111023171425824   0.124762548495821   1.0000000
B2   B   0.388889504922127   0.611338174668984   0.124718866168271   1.0000000
B2   B   0.722689132508590   0.611431591739149   0.124663804795280   1.0000000
B2   B   0.555655420668464   0.111007893353814   0.124553492779066   1.0000000
B2   B   0.388889504922127   0.611338174668983   0.625281133831744   1.0000000
B2   B   0.889075563173725   0.111204448253533   0.124947181081744   1.0000000
B2   B   0.222336815894646   0.777835074614003   0.624998413220081   1.0000000
B2   B   0.055714521104910   0.277868480820206   0.625320518192386   1.0000000
B2   B   0.388735177377377   0.277303741951471   0.622413347332755   1.0000000
B2   B   0.555655420668464   0.777980860647992   0.625446507220928   1.0000000
B2   B   0.889185081839769   0.777974230616382   0.625182070606374   1.0000000
B2   B   0.722445899446472   0.277770495361848   0.625443401712586   1.0000000
B2   B   0.055768267134604   0.777877418490891   0.125024887495050   1.0000000
B2   B   0.388958351036477   0.777891003012208   0.124779948562430   1.0000000
B2   B   0.222285094689497   0.277809214011420   0.125352038877655   1.0000000
B2   B   0.722445899446472   0.778008737417966   0.124556598287409   1.0000000
B2   B   0.555685086623561   0.277556230333267   0.124898881287236   1.0000000
B2   B   0.889102296649290   0.277848965039973   0.124874923035806   1.0000000
B2   B   0.055735104017207   0.444551434989980   0.625232984559836   1.0000000
B2   B   0.222315094037299   0.944406524556247   0.625213451461549   1.0000000
B2   B   0.555665604334187   0.944499468833742   0.625124057424910   1.0000000
B2   B   0.388735177377377   0.444764768759253   0.622413347332755   1.0000000
B2   B   0.889102296649290   0.944586664942666   0.625125076964194   1.0000000
B2   B   0.055735104017207   0.944517002360561   0.124767015440166   1.0000000
B2   B   0.722689132508590   0.444590874102814   0.625336195204734   1.0000000
B2   B   0.388958351036477   0.944400681357596   0.124779948562430   1.0000000
B2   B   0.222283007154324   0.444593169061838   0.124762548495821   1.0000000
B2   B   0.222315094037299   0.611241902814366   0.124786548538437   1.0000000
B2   B   0.556160344590109   0.444746838961719   0.126390217998004   1.0000000
B2   B   0.722388450443282   0.944576582370931   0.124912947136140   1.0000000
B2   B   0.889185081839769   0.444544184556716   0.124817929393631   1.0000000
B2   B   0.055768267134604   0.611224181977039   0.624975112504960   1.0000000
B2   B   0.222283007154324   0.111023171425824   0.625237451504169   1.0000000
B2   B   0.722689132508590   0.611431591739149   0.625336195204734   1.0000000
B2   B   0.555655420668464   0.111007893353814   0.625446507220928   1.0000000
B2   B   0.889075563173725   0.111204448253533   0.625052818918254   1.0000000


