data_1
_audit_creation_method   'vasp2cif'
_cell_length_a    14.93631414619966
_cell_length_b    14.936314146199727
_cell_length_c    13.341276283792837
_cell_angle_alpha    90.0
_cell_angle_beta    90.0
_cell_angle_gamma    119.99999999999984

_symmetry_space_group_name_H-M    'P 1'
loop_
_atom_site_label
_atom_site_type_symbol
_atom_site_fract_x
_atom_site_fract_y
_atom_site_fract_z
_atom_site_occupancy
Ge2   Ge   0.425774606257726   0.379553969795531   0.375000000000000   1.0000000
Ge2   Ge   0.580583487002745   0.456958410168034   0.375000000000000   1.0000000
N2   N   0.111045114545712   0.055495994555475   0.125122947317929   1.0000000
N2   N   0.611083336769617   0.555586278783181   0.122016302089255   1.0000000
N2   N   0.444410524814780   0.055520666037106   0.125064131503746   1.0000000
N2   N   0.944384594469504   0.555534690838182   0.125287843802189   1.0000000
N2   N   0.777761720004652   0.055547526668994   0.124878681092115   1.0000000
N2   N   0.111059975362247   0.722196654347785   0.624736111339985   1.0000000
N2   N   0.444410524814780   0.722223192111012   0.624935868496255   1.0000000
N2   N   0.277682667896356   0.222155090960546   0.625441269795304   1.0000000
N2   N   0.777736164647351   0.722211444725190   0.625489623114254   1.0000000
N2   N   0.611075436993707   0.222195290640439   0.625560054605507   1.0000000
N2   N   0.944410835834344   0.222212577871217   0.625088453802168   1.0000000
N2   N   0.277736386241846   0.722212450129352   0.125240995544822   1.0000000
N2   N   0.111044923587871   0.222189128460599   0.124919402385014   1.0000000
N2   N   0.444393639164445   0.222175500256371   0.123955096821947   1.0000000
N2   N   0.611075436993707   0.722213479686588   0.124439945394493   1.0000000
N2   N   0.944384594469504   0.722183236964657   0.125287843802189   1.0000000
N2   N   0.777753643060218   0.222203096064162   0.124845692358760   1.0000000
N2   N   0.111059948063995   0.888843663542047   0.624745498066584   1.0000000
N2   N   0.444415562442449   0.888874447887890   0.624811927400423   1.0000000
N2   N   0.277682667896356   0.388860910269146   0.625441269795304   1.0000000
N2   N   0.611083336769617   0.388830391319764   0.627983697910746   1.0000000
N2   N   0.777753643060218   0.888883880329376   0.625154307641239   1.0000000
N2   N   0.944397810611263   0.388877930920112   0.624899368697550   1.0000000
N2   N   0.111045114545712   0.388882453323566   0.125122947317929   1.0000000
N2   N   0.277736386241846   0.888857269445822   0.125240995544822   1.0000000
N2   N   0.611089860934923   0.888886404932386   0.125002596762727   1.0000000
N2   N   0.444197991684763   0.388765662509046   0.122680312707094   1.0000000
N2   N   0.944397810611263   0.888853213024481   0.125100631302450   1.0000000
N2   N   0.777736164647351   0.388858053255484   0.124510376885746   1.0000000
N2   N   0.277731437160442   0.555553702896828   0.624838942749990   1.0000000
N2   N   0.111045114545712   0.055495994555475   0.624877052682070   1.0000000
N2   N   0.611083336769617   0.555586278783181   0.627983697910746   1.0000000
N2   N   0.444410524814780   0.055520666037106   0.624935868496255   1.0000000
N2   N   0.944384594469504   0.555534690838182   0.624712156197811   1.0000000
N2   N   0.111059948063995   0.555549617855269   0.125254501933414   1.0000000
N2   N   0.777761720004652   0.055547526668994   0.625121318907887   1.0000000
N2   N   0.277731437160442   0.055511067596949   0.125161057250009   1.0000000
N2   N   0.444393639164445   0.555551472241416   0.123955096821947   1.0000000
N2   N   0.777694083447052   0.555513708390198   0.124467446809205   1.0000000
N2   N   0.611089860934923   0.055536789335864   0.125002596762727   1.0000000
N2   N   0.444393639164445   0.555551472241416   0.626044903178054   1.0000000
N2   N   0.944410835834344   0.055531591296462   0.124911546197833   1.0000000
N2   N   0.277736386241846   0.722212450129352   0.624759004455179   1.0000000
N2   N   0.111044923587871   0.222189128460599   0.625080597614987   1.0000000
N2   N   0.444393639164445   0.222175500256371   0.626044903178054   1.0000000
N2   N   0.611075436993707   0.722213479686588   0.625560054605507   1.0000000
N2   N   0.944384594469504   0.722183236964657   0.624712156197811   1.0000000
N2   N   0.777753643060218   0.222203096064162   0.625154307641239   1.0000000
N2   N   0.111059975362247   0.722196654347785   0.125263888660016   1.0000000
N2   N   0.444410524814780   0.722223192111012   0.125064131503746   1.0000000
N2   N   0.277682667896356   0.222155090960546   0.124558730204697   1.0000000
N2   N   0.777736164647351   0.722211444725190   0.124510376885746   1.0000000
N2   N   0.611075436993707   0.222195290640439   0.124439945394493   1.0000000
N2   N   0.944410835834344   0.222212577871217   0.124911546197833   1.0000000
N2   N   0.111045114545712   0.388882453323566   0.624877052682070   1.0000000
N2   N   0.277736386241846   0.888857269445822   0.624759004455179   1.0000000
N2   N   0.611089860934923   0.888886404932386   0.624997403237274   1.0000000
N2   N   0.444197991684763   0.388765662509046   0.627319687292906   1.0000000
N2   N   0.944397810611263   0.888853213024481   0.624899368697550   1.0000000
N2   N   0.111059948063995   0.888843663542047   0.125254501933414   1.0000000
N2   N   0.777736164647351   0.388858053255484   0.625489623114254   1.0000000
N2   N   0.444415562442449   0.888874447887890   0.125188072599575   1.0000000
N2   N   0.277682667896356   0.388860910269146   0.124558730204697   1.0000000
N2   N   0.277731437160442   0.555553702896828   0.125161057250009   1.0000000
N2   N   0.611083336769617   0.388830391319764   0.122016302089255   1.0000000
N2   N   0.777753643060218   0.888883880329376   0.124845692358760   1.0000000
N2   N   0.944397810611263   0.388877930920112   0.125100631302450   1.0000000
N2   N   0.111059948063995   0.555549617855269   0.624745498066584   1.0000000
N2   N   0.277731437160442   0.055511067596949   0.624838942749990   1.0000000
N2   N   0.777694083447052   0.555513708390198   0.625532553190795   1.0000000
N2   N   0.611089860934923   0.055536789335864   0.624997403237274   1.0000000
N2   N   0.944410835834344   0.055531591296462   0.625088453802168   1.0000000
N2   N   0.055741811634235   0.111194435130825   0.375000000000000   1.0000000
N2   N   0.554987663954762   0.625672544164415   0.375000000000000   1.0000000
N2   N   0.386099597269085   0.101018465681422   0.375000000000000   1.0000000
N2   N   0.890392793748177   0.611863063540760   0.375000000000000   1.0000000
N2   N   0.723525693900479   0.110154486346806   0.375000000000000   1.0000000
N2   N   0.055615618648211   0.777810156835842   0.875000000000000   1.0000000
N2   N   0.388950023682983   0.777811270549740   0.875000000000000   1.0000000
N2   N   0.222283842743691   0.277808588038513   0.875000000000000   1.0000000
N2   N   0.722283041427700   0.777811614302160   0.875000000000000   1.0000000
N2   N   0.555611795130526   0.277798285231614   0.875000000000000   1.0000000
N2   N   0.888950634082125   0.277806899455470   0.875000000000000   1.0000000
N2   N   0.220314480947862   0.776823907140596   0.375000000000000   1.0000000
N2   N   0.055741811634235   0.277880709836746   0.375000000000000   1.0000000
N2   N   0.375310072483929   0.250101613113521   0.375000000000000   1.0000000
N2   N   0.555244847833814   0.784368195192348   0.375000000000000   1.0000000
N2   N   0.892753040877156   0.781807660359854   0.375000000000000   1.0000000
N2   N   0.724499930821727   0.274539036308077   0.375000000000000   1.0000000
N2   N   0.055614175228339   0.944476331512482   0.875000000000000   1.0000000
N2   N   0.388950023682983   0.944472086466583   0.875000000000000   1.0000000
N2   N   0.222279979555569   0.444474135491205   0.875000000000000   1.0000000
N2   N   0.555613803412837   0.444473568373086   0.875000000000000   1.0000000
N2   N   0.722280453238511   0.944475220102679   0.875000000000000   1.0000000
N2   N   0.888953380156721   0.444473725956892   0.875000000000000   1.0000000
N2   N   0.054533281387249   0.444971342944183   0.375000000000000   1.0000000
N2   N   0.219870916682751   0.940581865000775   0.375000000000000   1.0000000
N2   N   0.555294336632846   0.944313834983087   0.375000000000000   1.0000000
N2   N   0.375310072483929   0.458541792703753   0.375000000000000   1.0000000
N2   N   0.890388046729166   0.946549821909434   0.375000000000000   1.0000000
N2   N   0.732196696956417   0.442790764316638   0.375000000000000   1.0000000
N2   N   0.222281248859101   0.611140249006300   0.875000000000000   1.0000000
N2   N   0.055614674607447   0.111141524672449   0.875000000000000   1.0000000
N2   N   0.555611795130526   0.611146843232247   0.875000000000000   1.0000000
N2   N   0.388947865096984   0.111134653057597   0.875000000000000   1.0000000
N2   N   0.888953831760693   0.611143582547020   0.875000000000000   1.0000000
N2   N   0.054901421299712   0.611227008183040   0.375000000000000   1.0000000
N2   N   0.722280453238511   0.111138566469166   0.875000000000000   1.0000000
N2   N   0.215916064407958   0.102494020259769   0.375000000000000   1.0000000
N2   N   0.386099597269085   0.618414464921007   0.375000000000000   1.0000000
N2   N   0.732196696956417   0.622739265973114   0.375000000000000   1.0000000
N2   N   0.555244847833814   0.104209985974805   0.375000000000000   1.0000000
N2   N   0.388947865096984   0.611146545372730   0.875000000000000   1.0000000
N2   N   0.890100892581752   0.111717112957551   0.375000000000000   1.0000000
N2   N   0.222281912906710   0.777807623120025   0.875000000000000   1.0000000
N2   N   0.055614674607447   0.277806483268335   0.875000000000000   1.0000000
N2   N   0.388948815585918   0.277802385906129   0.875000000000000   1.0000000
N2   N   0.555613842957091   0.777812346225858   0.875000000000000   1.0000000
N2   N   0.888953380156721   0.777812987533162   0.875000000000000   1.0000000
N2   N   0.722283041427700   0.277804760458875   0.875000000000000   1.0000000
N2   N   0.054901421299712   0.777007746450009   0.375000000000000   1.0000000
N2   N   0.387008322680509   0.779570544946414   0.375000000000000   1.0000000
N2   N   0.222259023279773   0.277796178306555   0.375000000000000   1.0000000
N2   N   0.724499930821727   0.783294227846986   0.375000000000000   1.0000000
N2   N   0.554987663954762   0.262648453123689   0.375000000000000   1.0000000
N2   N   0.890388046729166   0.277171558153066   0.375000000000000   1.0000000
N2   N   0.055614175228339   0.444471177049183   0.875000000000000   1.0000000
N2   N   0.222281248859101   0.944474333186144   0.875000000000000   1.0000000
N2   N   0.555614306514722   0.944473819924023   0.875000000000000   1.0000000
N2   N   0.388948815585918   0.444479763013125   0.875000000000000   1.0000000
N2   N   0.888950634082125   0.944477067959991   0.875000000000000   1.0000000
N2   N   0.054533281387249   0.942895271776394   0.375000000000000   1.0000000
N2   N   0.722290173351392   0.444477359504477   0.875000000000000   1.0000000
N2   N   0.387008322680509   0.940771111067434   0.375000000000000   1.0000000
N2   N   0.215916064407958   0.446755377481525   0.375000000000000   1.0000000
N2   N   0.219870916682751   0.612622385015319   0.375000000000000   1.0000000
N2   N   0.723525693900479   0.946704540887009   0.375000000000000   1.0000000
N2   N   0.892753040877156   0.444278713850634   0.375000000000000   1.0000000
N2   N   0.055615618648211   0.611138795145704   0.875000000000000   1.0000000
N2   N   0.222279979555569   0.111139177397700   0.875000000000000   1.0000000
N2   N   0.722290173351392   0.611146147180248   0.875000000000000   1.0000000
N2   N   0.555613842957091   0.111134830064571   0.875000000000000   1.0000000
N2   N   0.888948434373792   0.111140883853568   0.875000000000000   1.0000000
B2   B   0.107101203212477   0.051760949671565   0.375000000000000   1.0000000
B2   B   0.624556799924366   0.590123442806933   0.375000000000000   1.0000000
B2   B   0.443946795098337   0.049259413435035   0.375000000000000   1.0000000
B2   B   0.945255906363159   0.555307664507395   0.375000000000000   1.0000000
B2   B   0.779634879211931   0.056484106272637   0.375000000000000   1.0000000
B2   B   0.111173009055819   0.722253171194575   0.875000000000000   1.0000000
B2   B   0.444512888883721   0.722284818963377   0.875000000000000   1.0000000
B2   B   0.277809982396438   0.222223258171449   0.875000000000000   1.0000000
B2   B   0.777855073990789   0.722280209029516   0.875000000000000   1.0000000
B2   B   0.611185269908846   0.222227800885884   0.875000000000000   1.0000000
B2   B   0.944482392531621   0.222235439050011   0.875000000000000   1.0000000
B2   B   0.276205412730747   0.723013889973519   0.375000000000000   1.0000000
B2   B   0.110445285380774   0.221889309357055   0.375000000000000   1.0000000
B2   B   0.442797898566173   0.208606987851336   0.375000000000000   1.0000000
B2   B   0.613139089734896   0.734245316094699   0.375000000000000   1.0000000
B2   B   0.945255906363159   0.723281575189099   0.375000000000000   1.0000000
B2   B   0.780060892402162   0.220231292606002   0.375000000000000   1.0000000
B2   B   0.111163806609411   0.888914309712986   0.875000000000000   1.0000000
B2   B   0.444515464723649   0.888924399028489   0.875000000000000   1.0000000
B2   B   0.277809982396438   0.388920057558318   0.875000000000000   1.0000000
B2   B   0.611189075452609   0.388914373500805   0.875000000000000   1.0000000
B2   B   0.777842894788025   0.888940876060632   0.875000000000000   1.0000000
B2   B   0.944499986893337   0.388904197537109   0.875000000000000   1.0000000
B2   B   0.107101203212477   0.388673586874233   0.375000000000000   1.0000000
B2   B   0.276205412730747   0.886524856090557   0.375000000000000   1.0000000
B2   B   0.612690620375771   0.893031412465458   0.375000000000000   1.0000000
B2   B   0.945606412771468   0.891108116016208   0.375000000000000   1.0000000
B2   B   0.784653297933485   0.385924619606094   0.375000000000000   1.0000000
B2   B   0.277827039890491   0.555602625381450   0.875000000000000   1.0000000
B2   B   0.111141168049454   0.055567210231074   0.875000000000000   1.0000000
B2   B   0.611189075452609   0.555608035285133   0.875000000000000   1.0000000
B2   B   0.444512888883721   0.055561403253680   0.875000000000000   1.0000000
B2   B   0.944515768273485   0.555584062030009   0.875000000000000   1.0000000
B2   B   0.109598310530307   0.555829637843403   0.375000000000000   1.0000000
B2   B   0.777835654061790   0.055584493697565   0.875000000000000   1.0000000
B2   B   0.274741267003775   0.049559681923869   0.375000000000000   1.0000000
B2   B   0.442797898566173   0.567524244048172   0.375000000000000   1.0000000
B2   B   0.781545585184682   0.557439459259010   0.375000000000000   1.0000000
B2   B   0.612690620375771   0.052992541243635   0.375000000000000   1.0000000
B2   B   0.444514371323824   0.555625629250819   0.875000000000000   1.0000000
B2   B   0.945302920308085   0.056744603668063   0.375000000000000   1.0000000
B2   B   0.277840234558713   0.722262396577591   0.875000000000000   1.0000000
B2   B   0.111131112614593   0.222232222973961   0.875000000000000   1.0000000
B2   B   0.444514371323824   0.222222075406342   0.875000000000000   1.0000000
B2   B   0.611185269908846   0.722290802356293   0.875000000000000   1.0000000
B2   B   0.944515768273485   0.722265039576822   0.875000000000000   1.0000000
B2   B   0.777842894788025   0.222235352060724   0.875000000000000   1.0000000
B2   B   0.110057658571610   0.721695495952470   0.375000000000000   1.0000000
B2   B   0.443946795098337   0.728020714996630   0.375000000000000   1.0000000
B2   B   0.267583306855126   0.210086633382476   0.375000000000000   1.0000000
B2   B   0.784653297933485   0.732062011660712   0.375000000000000   1.0000000
B2   B   0.613139089734896   0.212227106973526   0.375000000000000   1.0000000
B2   B   0.945302920308085   0.221891649973357   0.375000000000000   1.0000000
B2   B   0.111141168049454   0.388907291151707   0.875000000000000   1.0000000
B2   B   0.277840234558713   0.888911171314460   0.875000000000000   1.0000000
B2   B   0.611182208937235   0.888939644088282   0.875000000000000   1.0000000
B2   B   0.444519825541905   0.388926579437616   0.875000000000000   1.0000000
B2   B   0.944499986893337   0.888929122689558   0.875000000000000   1.0000000
B2   B   0.109598310530307   0.887102006020234   0.375000000000000   1.0000000
B2   B   0.777855073990789   0.388908198294605   0.875000000000000   1.0000000
B2   B   0.444198721361862   0.888766027347592   0.375000000000000   1.0000000
B2   B   0.267583306855126   0.390830006805986   0.375000000000000   1.0000000
B2   B   0.274741267003775   0.558514918413242   0.375000000000000   1.0000000
B2   B   0.624556799924366   0.367766690450761   0.375000000000000   1.0000000
B2   B   0.780060892402162   0.893162933129490   0.375000000000000   1.0000000
B2   B   0.945606412771468   0.387831630088595   0.375000000000000   1.0000000
B2   B   0.111163806609411   0.555582830229762   0.875000000000000   1.0000000
B2   B   0.277827039890491   0.055557747842377   0.875000000000000   1.0000000
B2   B   0.777859724666297   0.555596528999810   0.875000000000000   1.0000000
B2   B   0.611182208937235   0.055575898182283   0.875000000000000   1.0000000
B2   B   0.944482392531621   0.055580286814948   0.875000000000000   1.0000000
B2   B   0.055432851194300   0.111016006689492   0.124720508087540   1.0000000
B2   B   0.555572124209337   0.611190557315901   0.122971372095237   1.0000000
B2   B   0.388813964759354   0.110950497514637   0.124453879001710   1.0000000
B2   B   0.888903565056985   0.611118449195165   0.124780318760276   1.0000000
B2   B   0.722208509710475   0.111074385656036   0.124701810636790   1.0000000
B2   B   0.055525440681370   0.777742052846863   0.624968402436193   1.0000000
B2   B   0.388837359538345   0.777800757705607   0.625037509298886   1.0000000
B2   B   0.222005134117920   0.277669233725632   0.625872948663100   1.0000000
B2   B   0.722235344131642   0.777852304280732   0.625737447868471   1.0000000
B2   B   0.555572124209337   0.277714900226775   0.627028627904761   1.0000000
B2   B   0.888852590453956   0.277750818944554   0.625273823199462   1.0000000
B2   B   0.222169711733798   0.777751522533565   0.125011757074206   1.0000000
B2   B   0.055432851194300   0.277750177838143   0.124720508087540   1.0000000
B2   B   0.388729091119249   0.277519885413720   0.122779132869088   1.0000000
B2   B   0.555535424579225   0.777846192745355   0.124593115676370   1.0000000
B2   B   0.888886583402365   0.777790801539393   0.124727343253421   1.0000000
B2   B   0.722235344131642   0.277716373184253   0.124262552131531   1.0000000
B2   B   0.055475232209568   0.944350727962912   0.625058903322647   1.0000000
B2   B   0.388837359538345   0.944369935166073   0.625037509298886   1.0000000
B2   B   0.222056206291041   0.444491879027680   0.625364994785822   1.0000000
B2   B   0.555641416023765   0.444487374678547   0.627704029036033   1.0000000
B2   B   0.722208509710475   0.944467457387775   0.625298189363211   1.0000000
B2   B   0.888886583402365   0.444429115196299   0.625272656746579   1.0000000
B2   B   0.055475232209568   0.444457837579987   0.124941096677351   1.0000000
B2   B   0.222144171357247   0.944327066097580   0.124988589613919   1.0000000
B2   B   0.555531375940031   0.944432354636679   0.124876929848893   1.0000000
B2   B   0.388729091119249   0.444542539038866   0.122779132869088   1.0000000
B2   B   0.888852590453956   0.944435104842740   0.124726176800536   1.0000000
B2   B   0.722230420430057   0.444401342498574   0.123114999175758   1.0000000
B2   B   0.222144171357247   0.611150438593002   0.625011410386080   1.0000000
B2   B   0.055432851194300   0.111016006689492   0.625279491912460   1.0000000
B2   B   0.555572124209337   0.611190557315901   0.627028627904761   1.0000000
B2   B   0.388813964759354   0.110950497514637   0.625546120998291   1.0000000
B2   B   0.888903565056985   0.611118449195165   0.625219681239725   1.0000000
B2   B   0.055525440681370   0.611116721167841   0.125031597563807   1.0000000
B2   B   0.722208509710475   0.111074385656036   0.625298189363211   1.0000000
B2   B   0.222056206291041   0.110897660596691   0.124635005214176   1.0000000
B2   B   0.388813964759354   0.611196800578053   0.124453879001710   1.0000000
B2   B   0.722230420430057   0.611162411264828   0.123114999175758   1.0000000
B2   B   0.555535424579225   0.111022565167205   0.124593115676370   1.0000000
B2   B   0.388813964759354   0.611196800578053   0.625546120998291   1.0000000
B2   B   0.888839346951374   0.111086340142355   0.124683342930291   1.0000000
B2   B   0.222169711733798   0.777751522533565   0.624988242925794   1.0000000
B2   B   0.055432851194300   0.277750177838143   0.625279491912460   1.0000000
B2   B   0.388729091119249   0.277519885413720   0.627220867130911   1.0000000
B2   B   0.555535424579225   0.777846192745355   0.625406884323637   1.0000000
B2   B   0.888886583402365   0.777790801539393   0.625272656746579   1.0000000
B2   B   0.722235344131642   0.277716373184253   0.625737447868471   1.0000000
B2   B   0.055525440681370   0.777742052846863   0.125031597563807   1.0000000
B2   B   0.388837359538345   0.777800757705607   0.124962490701115   1.0000000
B2   B   0.222005134117920   0.277669233725632   0.124127051336900   1.0000000
B2   B   0.722235344131642   0.777852304280732   0.124262552131531   1.0000000
B2   B   0.555572124209337   0.277714900226775   0.122971372095237   1.0000000
B2   B   0.888852590453956   0.277750818944554   0.124726176800536   1.0000000
B2   B   0.055475232209568   0.444457837579987   0.625058903322647   1.0000000
B2   B   0.222144171357247   0.944327066097580   0.625011410386080   1.0000000
B2   B   0.555531375940031   0.944432354636679   0.625123070151106   1.0000000
B2   B   0.388729091119249   0.444542539038866   0.627220867130911   1.0000000
B2   B   0.888852590453956   0.944435104842740   0.625273823199462   1.0000000
B2   B   0.055475232209568   0.944350727962912   0.124941096677351   1.0000000
B2   B   0.722230420430057   0.444401342498574   0.626885000824242   1.0000000
B2   B   0.388837359538345   0.944369935166073   0.124962490701115   1.0000000
B2   B   0.222056206291041   0.444491879027680   0.124635005214176   1.0000000
B2   B   0.222144171357247   0.611150438593002   0.124988589613919   1.0000000
B2   B   0.555641416023765   0.444487374678547   0.122295970963966   1.0000000
B2   B   0.722208509710475   0.944467457387775   0.124701810636790   1.0000000
B2   B   0.888886583402365   0.444429115196299   0.124727343253421   1.0000000
B2   B   0.055525440681370   0.611116721167841   0.624968402436193   1.0000000
B2   B   0.222056206291041   0.110897660596691   0.625364994785822   1.0000000
B2   B   0.722230420430057   0.611162411264828   0.626885000824242   1.0000000
B2   B   0.555535424579225   0.111022565167205   0.625406884323637   1.0000000
B2   B   0.888839346951374   0.111086340142355   0.625316657069710   1.0000000


