data_1
_audit_creation_method   'vasp2cif'
_cell_length_a    17.52789999999977
_cell_length_b    17.52789999999977
_cell_length_c    15.0
_cell_angle_alpha    90.0
_cell_angle_beta    90.0
_cell_angle_gamma    119.99999999999916

_symmetry_space_group_name_H-M    'P 1'
loop_
_atom_site_label
_atom_site_type_symbol
_atom_site_fract_x
_atom_site_fract_y
_atom_site_fract_z
_atom_site_occupancy
Sn2   Sn   0.497349111660414   0.502652290256587   0.111002589428120   1.0000000
B2   B   0.906424888460396   0.953659518212574   0.111006975459142   1.0000000
B2   B   0.904453804160409   0.095548217035582   0.111029628956530   1.0000000
B2   B   0.903862057952660   0.238210211071070   0.111032053330283   1.0000000
B2   B   0.904194402534896   0.381072406189810   0.110982099138348   1.0000000
B2   B   0.905963775958026   0.524141495747852   0.111046582077079   1.0000000
B2   B   0.907692934218876   0.667645137746535   0.111085231659826   1.0000000
B2   B   0.908498323358492   0.811710778151137   0.111042634752639   1.0000000
B2   B   0.048392724512756   0.951609296683251   0.111031241558026   1.0000000
B2   B   0.046342502983426   0.093577132735595   0.111006975459142   1.0000000
B2   B   0.045725989117733   0.236867865171543   0.110985689441025   1.0000000
B2   B   0.046299571922264   0.380273982282899   0.111002360152849   1.0000000
B2   B   0.047946496436825   0.523375686661442   0.111017007452705   1.0000000
B2   B   0.049302627820748   0.666304138056070   0.111075195519069   1.0000000
B2   B   0.049431532794465   0.809176790588672   0.111064404250060   1.0000000
B2   B   0.190825230607336   0.950570488401544   0.111064404250060   1.0000000
B2   B   0.188291243044867   0.091503697837502   0.111042634752639   1.0000000
B2   B   0.185926718382175   0.233324175940512   0.110988826887832   1.0000000
B2   B   0.187357759795847   0.378590274055630   0.111040129600411   1.0000000
B2   B   0.189957238010888   0.522547024857463   0.111057239387797   1.0000000
B2   B   0.191825392643913   0.665611559237858   0.111030388468274   1.0000000
B2   B   0.191690605874196   0.808311415321809   0.111018716698622   1.0000000
B2   B   0.333697883140929   0.950699393375253   0.111075195519069   1.0000000
B2   B   0.332356883450460   0.092309086977118   0.111085231659826   1.0000000
B2   B   0.327449539798731   0.230550465717712   0.111002720864657   1.0000000
B2   B   0.324199923491984   0.373114583649450   0.111048136084324   1.0000000
B2   B   0.331689809749109   0.520593147677917   0.111065485864245   1.0000000
B2   B   0.334997007003411   0.665005014193581   0.111060394791727   1.0000000
B2   B   0.334390461959135   0.808176628552088   0.111030388468274   1.0000000
B2   B   0.476626334535554   0.952055524759174   0.111017007452705   1.0000000
B2   B   0.475860525449145   0.094038245237968   0.111046582077079   1.0000000
B2   B   0.474507749670223   0.235140368404935   0.111012147964415   1.0000000
B2   B   0.464684397954997   0.366207695880841   0.111047822539301   1.0000000
B2   B   0.479408873519076   0.668312211447888   0.111065485864245   1.0000000
B2   B   0.477454996339536   0.810044783185115   0.111057239387797   1.0000000
B2   B   0.619728038913100   0.953702449273739   0.111002360152849   1.0000000
B2   B   0.618929615006204   0.095807618661102   0.110982099138348   1.0000000
B2   B   0.618456236670120   0.238444182195872   0.110990418207816   1.0000000
B2   B   0.618170766221455   0.381831254974553   0.110986531500988   1.0000000
B2   B   0.633794325315166   0.535317623241996   0.111047822539301   1.0000000
B2   B   0.626887437546549   0.675802097705014   0.111048136084324   1.0000000
B2   B   0.621411747140371   0.812644261400157   0.111040129600411   1.0000000
B2   B   0.763134156024462   0.954276032078273   0.110985689441025   1.0000000
B2   B   0.761791810124929   0.096139963243340   0.111032053330283   1.0000000
B2   B   0.761348826494541   0.238653194701466   0.111018793451171   1.0000000
B2   B   0.761557839000131   0.381545784525880   0.110990418207816   1.0000000
B2   B   0.764861652791071   0.525494271526779   0.111012147964415   1.0000000
B2   B   0.769451555478291   0.672552481398270   0.111002720864657   1.0000000
B2   B   0.766677845255492   0.814075302813827   0.110988826887832   1.0000000
N2   N   0.954194729969433   0.905924646571747   0.111006339126979   1.0000000
N2   N   0.952137347538837   0.047864054379164   0.111011022636931   1.0000000
N2   N   0.951084553766672   0.190291030960611   0.111005188241149   1.0000000
N2   N   0.951260371134997   0.333187294602451   0.110976486600100   1.0000000
N2   N   0.952685372529392   0.476132429964907   0.110982173810539   1.0000000
N2   N   0.954184447461421   0.619211120571917   0.111077246795642   1.0000000
N2   N   0.954745356936778   0.762613567434366   0.111069689357995   1.0000000
N2   N   0.096076480304123   0.903924921613876   0.111027053947993   1.0000000
N2   N   0.094076755346247   0.045806671948571   0.111006339126979   1.0000000
N2   N   0.092023958329080   0.187817989407343   0.110958272632183   1.0000000
N2   N   0.092699074012687   0.331802974593202   0.110988258827871   1.0000000
N2   N   0.094696912288967   0.475370077604344   0.111005848783328   1.0000000
N2   N   0.096429523242276   0.618445747153930   0.111026400041521   1.0000000
N2   N   0.096690528373530   0.761277966598333   0.111032097563188   1.0000000
N2   N   0.238723435319675   0.903310873544469   0.111032097563188   1.0000000
N2   N   0.237387834483642   0.045256044981228   0.111069689357995   1.0000000
N2   N   0.233597019525940   0.185395196619313   0.110984659964512   1.0000000
N2   N   0.231028381108773   0.327240642305471   0.111011763752109   1.0000000
N2   N   0.235979812219218   0.474015928306283   0.111047698638927   1.0000000
N2   N   0.239199210526136   0.617870623692381   0.111033147296450   1.0000000
N2   N   0.239237400070934   0.760764001847074   0.110995541137776   1.0000000
N2   N   0.381555654764073   0.903571878675721   0.111026400041521   1.0000000
N2   N   0.380790281346079   0.045816954456585   0.111077246795642   1.0000000
N2   N   0.379065332376498   0.187068883220885   0.111012673066482   1.0000000
N2   N   0.371926690161599   0.324039067935061   0.111016869190529   1.0000000
N2   N   0.369729463328143   0.465691356328226   0.111040370118231   1.0000000
N2   N   0.382777798636185   0.617223603281815   0.111040713327740   1.0000000
N2   N   0.382130778225614   0.760802191391870   0.111033147296450   1.0000000
N2   N   0.524631324312654   0.905304489629029   0.111005848783328   1.0000000
N2   N   0.523868971952091   0.047316029388610   0.110982173810539   1.0000000
N2   N   0.523176596925516   0.189327279781128   0.110997000271392   1.0000000
N2   N   0.521856352142320   0.330903573326628   0.110985809273724   1.0000000
N2   N   0.534310045588771   0.630271938589854   0.111040370118231   1.0000000
N2   N   0.525985473610713   0.764021589698786   0.111047698638927   1.0000000
N2   N   0.668198427323792   0.907302327905310   0.110988258827871   1.0000000
N2   N   0.666814107314549   0.048741030783009   0.110976486600100   1.0000000
N2   N   0.666195312975195   0.191153143765563   0.110974073522502   1.0000000
N2   N   0.665805505635756   0.334195896281235   0.110967918184473   1.0000000
N2   N   0.669097828590368   0.478145049774683   0.110985809273724   1.0000000
N2   N   0.675962333981935   0.628074711756409   0.111016869190529   1.0000000
N2   N   0.672760759611525   0.768973020809237   0.111011763752109   1.0000000
N2   N   0.812183412510658   0.907977443588918   0.110958272632183   1.0000000
N2   N   0.809710370957391   0.048916848151328   0.111005188241149   1.0000000
N2   N   0.808879052569955   0.191122349348043   0.111034468746984   1.0000000
N2   N   0.808848258152439   0.333806088941802   0.110974073522502   1.0000000
N2   N   0.810674122136871   0.476824804991487   0.110997000271392   1.0000000
N2   N   0.812932518697114   0.620936069541494   0.111012673066482   1.0000000
N2   N   0.814606205298687   0.766404382392065   0.110984659964512   1.0000000


