data_1
_audit_creation_method   'vasp2cif'
_cell_length_a    17.52789999999977
_cell_length_b    17.52789999999977
_cell_length_c    15.0
_cell_angle_alpha    90.0
_cell_angle_beta    90.0
_cell_angle_gamma    119.99999999999916

_symmetry_space_group_name_H-M    'P 1'
loop_
_atom_site_label
_atom_site_type_symbol
_atom_site_fract_x
_atom_site_fract_y
_atom_site_fract_z
_atom_site_occupancy
B2   B   0.906721531393503   0.954016378026929   0.111041759041242   1.0000000
B2   B   0.904521985114384   0.095480036081597   0.111070128907129   1.0000000
B2   B   0.903839374420612   0.237903032446426   0.111068932595979   1.0000000
B2   B   0.904523491916510   0.380884525044106   0.111013348322350   1.0000000
B2   B   0.906855030875936   0.524247456333883   0.111063348959911   1.0000000
B2   B   0.907392568182073   0.667774728357173   0.111109447104301   1.0000000
B2   B   0.908221879005295   0.811739103976425   0.111062191521471   1.0000000
B2   B   0.048210278570166   0.951791742625838   0.111058713521278   1.0000000
B2   B   0.045985643169040   0.093280489802466   0.111041759041242   1.0000000
B2   B   0.044918823048435   0.236182302109051   0.110960226273682   1.0000000
B2   B   0.045390403433055   0.380061611098415   0.110934959166377   1.0000000
B2   B   0.046967528035206   0.523824948573033   0.110974449997138   1.0000000
B2   B   0.048857281490107   0.666837539904865   0.111069229872350   1.0000000
B2   B   0.049021472590488   0.809523853214098   0.111084497645414   1.0000000
B2   B   0.190478167981947   0.950980548605528   0.111084497645414   1.0000000
B2   B   0.188262917219586   0.091780142190722   0.111062191521471   1.0000000
B2   B   0.184591417188129   0.232161767712154   0.110905115677618   1.0000000
B2   B   0.184979691467704   0.377316163179864   0.110863617369152   1.0000000
B2   B   0.186413520888965   0.523239208911554   0.110899960188659   1.0000000
B2   B   0.190890130687868   0.666540707018422   0.110991307973242   1.0000000
B2   B   0.191040828620246   0.808961192575750   0.111006665636150   1.0000000
B2   B   0.333164481292105   0.951144739705877   0.111069229872350   1.0000000
B2   B   0.332227292839821   0.092609453013934   0.111109447104301   1.0000000
B2   B   0.327747455819492   0.231404549970422   0.110948944319838   1.0000000
B2   B   0.321805065727516   0.370208559343238   0.111023576109724   1.0000000
B2   B   0.322565514141209   0.519271650681552   0.111166077406813   1.0000000
B2   B   0.333656283755930   0.666345737441086   0.111047829811951   1.0000000
B2   B   0.333461314178501   0.809111890508134   0.110991307973242   1.0000000
B2   B   0.476177072623922   0.953034493160751   0.110974449997138   1.0000000
B2   B   0.475754564863163   0.093146990320067   0.111063348959911   1.0000000
B2   B   0.475369040146152   0.232478916787337   0.111027073686100   1.0000000
B2   B   0.466030966612543   0.361492282321711   0.111371466085582   1.0000000
B2   B   0.480730370515437   0.677436507055791   0.111166077406813   1.0000000
B2   B   0.476762812285440   0.813588500307035   0.110899960188659   1.0000000
B2   B   0.619940410097578   0.954611617762971   0.110934959166377   1.0000000
B2   B   0.619117496151897   0.095478529279486   0.111013348322350   1.0000000
B2   B   0.619140298514379   0.236932676417506   0.110997361472557   1.0000000
B2   B   0.620521125625819   0.379480895570162   0.111052417823852   1.0000000
B2   B   0.638509738874353   0.533971054584412   0.111371466085582   1.0000000
B2   B   0.629793461852777   0.678196955469443   0.111023576109724   1.0000000
B2   B   0.622685858016128   0.815022329728302   0.110863617369152   1.0000000
B2   B   0.763819719086963   0.955083198147563   0.110960226273682   1.0000000
B2   B   0.762098988749570   0.096162646775416   0.111068932595979   1.0000000
B2   B   0.761881586205362   0.238120434990672   0.111055856425896   1.0000000
B2   B   0.763069344778493   0.380861722681614   0.110997361472557   1.0000000
B2   B   0.767523104408618   0.524632981050865   0.111027073686100   1.0000000
B2   B   0.768597471225575   0.672254565377494   0.110948944319838   1.0000000
B2   B   0.767840253483811   0.815410604007861   0.110905115677618   1.0000000
N2   N   0.954108310252072   0.906077415480178   0.111043167260659   1.0000000
N2   N   0.952084910811836   0.047916491106177   0.111050726044236   1.0000000
N2   N   0.950716740978111   0.189926930039518   0.111030640701712   1.0000000
N2   N   0.950996257698014   0.332735107429281   0.110998623250835   1.0000000
N2   N   0.952744548642622   0.475942818717574   0.111002082374673   1.0000000
N2   N   0.954258762647456   0.619474762550968   0.111098473181638   1.0000000
N2   N   0.954627017077936   0.762902567217931   0.111102741574635   1.0000000
N2   N   0.095802715036089   0.904198686881919   0.111036974317869   1.0000000
N2   N   0.093923986437784   0.045893091665939   0.111043167260659   1.0000000
N2   N   0.090955988078371   0.187096909373878   0.110949662795693   1.0000000
N2   N   0.091079751049290   0.330987991676904   0.110871371091700   1.0000000
N2   N   0.092453046224538   0.475313586107419   0.110874752855335   1.0000000
N2   N   0.095829958880790   0.618951364864578   0.110981988268883   1.0000000
N2   N   0.096299478291288   0.761758539566321   0.111021411267517   1.0000000
N2   N   0.238242862351674   0.903701923626738   0.111021411267517   1.0000000
N2   N   0.237098834700121   0.045374384840000   0.111102741574635   1.0000000
N2   N   0.233374608703213   0.185474880876247   0.110928474076050   1.0000000
N2   N   0.228534738313913   0.325538389801111   0.110809358990974   1.0000000
N2   N   0.229730282791096   0.473360126757773   0.110850839263703   1.0000000
N2   N   0.237960677082124   0.618667335603538   0.110929791435141   1.0000000
N2   N   0.238502457712721   0.761498944205318   0.110977476255900   1.0000000
N2   N   0.381050037053421   0.904171443037196   0.110981988268883   1.0000000
N2   N   0.380526639367053   0.045742639270534   0.111098473181638   1.0000000
N2   N   0.379075413022853   0.186716753654066   0.111003846883675   1.0000000
N2   N   0.371941273824057   0.324662692395222   0.110973259307533   1.0000000
N2   N   0.357094269495963   0.462172173917358   0.111287250791533   1.0000000
N2   N   0.381736199595031   0.618265202322965   0.111160047589862   1.0000000
N2   N   0.381334066314497   0.762040724835874   0.110929791435141   1.0000000
N2   N   0.524687815809537   0.907548355693437   0.110874752855335   1.0000000
N2   N   0.524058583199437   0.047256853275373   0.111002082374673   1.0000000
N2   N   0.523956036468746   0.187075583520700   0.110997425792371   1.0000000
N2   N   0.523910888604608   0.325434112249341   0.111079741362074   1.0000000
N2   N   0.537829227999676   0.642907132422049   0.111287250791531   1.0000000
N2   N   0.526641275159236   0.770271119126891   0.110850839263703   1.0000000
N2   N   0.669013410240081   0.908921650868745   0.110871371091700   1.0000000
N2   N   0.667266294487708   0.049005144220006   0.110998623250835   1.0000000
N2   N   0.666998067261502   0.190234157935948   0.111010885243544   1.0000000
N2   N   0.667756514003090   0.332244887913933   0.110960345387896   1.0000000
N2   N   0.674567289667659   0.476090513312396   0.111079741362074   1.0000000
N2   N   0.675338709521768   0.628060128093918   0.110973259307533   1.0000000
N2   N   0.674463012115888   0.771466663604155   0.110809358990974   1.0000000
N2   N   0.812904492544109   0.909045413839622   0.110949662795693   1.0000000
N2   N   0.810074471878473   0.049284660939845   0.111030640701712   1.0000000
N2   N   0.809229011530244   0.190772390387797   0.111065324390060   1.0000000
N2   N   0.809767243982038   0.333003334655484   0.111010885243544   1.0000000
N2   N   0.812925818397343   0.476045365448280   0.110997425792371   1.0000000
N2   N   0.813284648263953   0.620925988895145   0.111003846883675   1.0000000
N2   N   0.814526521041710   0.766626793214792   0.110928474076050   1.0000000
Al2   Al   0.462723435751548   0.537278585445427   0.111344349213934   1.0000000
S2   S   0.528002208758721   0.471999193158269   0.111227787555222   1.0000000


