data_1
_audit_creation_method   'vasp2cif'
_cell_length_a    17.52789999999977
_cell_length_b    17.52789999999977
_cell_length_c    15.0
_cell_angle_alpha    90.0
_cell_angle_beta    90.0
_cell_angle_gamma    119.99999999999916

_symmetry_space_group_name_H-M    'P 1'
loop_
_atom_site_label
_atom_site_type_symbol
_atom_site_fract_x
_atom_site_fract_y
_atom_site_fract_z
_atom_site_occupancy
B2   B   0.909332788113524   0.954127798823238   0.110704783993190   1.0000000
B2   B   0.908965290227163   0.095859173953740   0.110754374293833   1.0000000
B2   B   0.908854996097629   0.237798935838155   0.110707760462389   1.0000000
B2   B   0.908905449423848   0.380195923128857   0.110683015205448   1.0000000
B2   B   0.908516897137378   0.522973727573001   0.110744919301032   1.0000000
B2   B   0.907831422738856   0.665702442163157   0.110784371190151   1.0000000
B2   B   0.904586877562527   0.807426266598331   0.110720832124789   1.0000000
B2   B   0.050606124206643   0.953895189934777   0.110684251229675   1.0000000
B2   B   0.052755917638934   0.097552476103540   0.110784599332646   1.0000000
B2   B   0.051996981142706   0.238983378421762   0.110815213696275   1.0000000
B2   B   0.050799846240706   0.381234320955966   0.110715623494041   1.0000000
B2   B   0.049533167855153   0.524438430108979   0.110705769692116   1.0000000
B2   B   0.049418072547068   0.667726346073472   0.110735640571474   1.0000000
B2   B   0.049226088196737   0.810680354275657   0.110737096773716   1.0000000
B2   B   0.193331144992559   0.955177827104833   0.110691514860966   1.0000000
B2   B   0.196543967482670   0.100011434304529   0.110728009000797   1.0000000
B2   B   0.196583612433813   0.241584307195229   0.110785584699737   1.0000000
B2   B   0.193525276373947   0.382226975956561   0.110722805366989   1.0000000
B2   B   0.189922013966731   0.525268970032492   0.110692164622523   1.0000000
B2   B   0.190084428282711   0.668838254798274   0.110746462004775   1.0000000
B2   B   0.191838134666519   0.811888373759227   0.110740502204444   1.0000000
B2   B   0.335521299152445   0.955012436351890   0.110725897345021   1.0000000
B2   B   0.337560049257286   0.098876179623635   0.110750222690320   1.0000000
B2   B   0.344140417309932   0.247443370616417   0.110787448211752   1.0000000
B2   B   0.339740875205410   0.385215046721008   0.110786733529783   1.0000000
B2   B   0.329326961936981   0.526970188616582   0.110720973382422   1.0000000
B2   B   0.329613081331858   0.669972412476451   0.110728909431294   1.0000000
B2   B   0.334037317747321   0.812383577629441   0.110794743454062   1.0000000
B2   B   0.477981704204973   0.953548203785884   0.110751977428746   1.0000000
B2   B   0.479323252896764   0.095731005549262   0.110766295050629   1.0000000
B2   B   0.481376356579962   0.238631133326247   0.110802419147415   1.0000000
B2   B   0.498906558330528   0.394107545365016   0.110826452113011   1.0000000
B2   B   0.466846059996700   0.667592358755488   0.110675163867519   1.0000000
B2   B   0.476616636322722   0.811273745961073   0.110740773503105   1.0000000
B2   B   0.621149483835480   0.954224715992231   0.110743101957545   1.0000000
B2   B   0.622083079440481   0.094714229214323   0.110723629187836   1.0000000
B2   B   0.623145266438435   0.235094393848778   0.110750710057059   1.0000000
B2   B   0.625570471367785   0.374404157093173   0.110813184389220   1.0000000
B2   B   0.613565059202530   0.500144923605227   0.110828770322317   1.0000000
B2   B   0.620611342185872   0.814135310710568   0.110656001591806   1.0000000
B2   B   0.765219709846566   0.953458112850647   0.110702839812488   1.0000000
B2   B   0.765482914894700   0.095113110040859   0.110701732824566   1.0000000
B2   B   0.766079243599612   0.236684546363928   0.110686083163821   1.0000000
B2   B   0.767188805289141   0.378389240018100   0.110721206888769   1.0000000
B2   B   0.766533577337772   0.519618664178840   0.110741577449085   1.0000000
B2   B   0.761940037558634   0.657240453020785   0.110783881015832   1.0000000
B2   B   0.766529779504210   0.812406538172865   0.110725896941280   1.0000000
Ga2   Ga   0.615726940298679   0.658731488733072   0.110915208577307   1.0000000
N2   N   0.954623496222306   0.904403331797526   0.110666750141903   1.0000000
N2   N   0.957408992450602   0.049300474767795   0.110736977497908   1.0000000
N2   N   0.956789405805408   0.190856440002760   0.110751600824530   1.0000000
N2   N   0.956227972077467   0.332814106346260   0.110675890683882   1.0000000
N2   N   0.955497790278671   0.475434552659270   0.110695842861585   1.0000000
N2   N   0.955239529141032   0.618537396028555   0.110743103965012   1.0000000
N2   N   0.953907521108152   0.761471794650411   0.110738161282560   1.0000000
N2   N   0.097869270310185   0.906362285025648   0.110678063543814   1.0000000
N2   N   0.100195724725667   0.050190670600602   0.110706350466365   1.0000000
N2   N   0.100785662019012   0.192766819683576   0.110802360504109   1.0000000
N2   N   0.098654967669417   0.333957192428340   0.110747615071972   1.0000000
N2   N   0.096098717378986   0.476431317702333   0.110678850184539   1.0000000
N2   N   0.095962330920400   0.619875896314205   0.110705210859172   1.0000000
N2   N   0.096763146268756   0.763263751962153   0.110716623342305   1.0000000
N2   N   0.240236325513456   0.907192686399607   0.110688844351642   1.0000000
N2   N   0.242184827669878   0.050768961904790   0.110696771016985   1.0000000
N2   N   0.246367786307515   0.196448397098200   0.110751318310007   1.0000000
N2   N   0.243522953753545   0.336580988147742   0.110740802191023   1.0000000
N2   N   0.236254551282252   0.477084557875491   0.110657159304947   1.0000000
N2   N   0.235795667179694   0.620661879456485   0.110693152514146   1.0000000
N2   N   0.238812302367585   0.764175677103387   0.110746463402826   1.0000000
N2   N   0.382651594735038   0.907185300882817   0.110739075160400   1.0000000
N2   N   0.384016258796307   0.049923593454531   0.110731023056029   1.0000000
N2   N   0.386416178398182   0.194204782560500   0.110771701138582   1.0000000
N2   N   0.395979527262934   0.345602287141282   0.110784452229131   1.0000000
N2   N   0.376325086759396   0.479797640546985   0.110759239052172   1.0000000
N2   N   0.373735731122869   0.621519711344393   0.110692172225774   1.0000000
N2   N   0.380895282958146   0.764819911948986   0.110746492838336   1.0000000
N2   N   0.525511137945854   0.906220947918321   0.110730257066155   1.0000000
N2   N   0.526701169040564   0.048061460854133   0.110728424770875   1.0000000
N2   N   0.528017354458013   0.189804644492283   0.110773300672094   1.0000000
N2   N   0.531087467627810   0.332111913828538   0.110806246915052   1.0000000
N2   N   0.464549658773905   0.523244033754662   0.110915276406187   1.0000000
N2   N   0.500523282480131   0.610628447227174   0.110660271661630   1.0000000
N2   N   0.523556111709206   0.763221820948446   0.110630998911469   1.0000000
N2   N   0.669296788059005   0.908359608026464   0.110675951470846   1.0000000
N2   N   0.670078870998435   0.048356043406223   0.110692446781181   1.0000000
N2   N   0.670960191030832   0.188692490815131   0.110698083168616   1.0000000
N2   N   0.672833359363762   0.328583165272098   0.110753508108530   1.0000000
N2   N   0.673084160984338   0.467252803904909   0.110746413433012   1.0000000
N2   N   0.668091636435154   0.596586542147243   0.110775687040563   1.0000000
N2   N   0.673949940663284   0.775007189714812   0.110651706387206   1.0000000
N2   N   0.814766306318548   0.907428158453018   0.110681476545143   1.0000000
N2   N   0.813587497224229   0.048322171391789   0.110694624940959   1.0000000
N2   N   0.813828906519100   0.189822885759057   0.110666229842139   1.0000000
N2   N   0.814487337966117   0.331439518945310   0.110666562631602   1.0000000
N2   N   0.814632972571872   0.473370378016582   0.110720259706519   1.0000000
N2   N   0.813886970986758   0.615302661640889   0.110760004568910   1.0000000
N2   N   0.808026481870619   0.757244711032707   0.110741203702618   1.0000000


