data_1
_audit_creation_method   'vasp2cif'
_cell_length_a    14.93631414619966
_cell_length_b    14.936314146199727
_cell_length_c    13.341276283792837
_cell_angle_alpha    90.0
_cell_angle_beta    90.0
_cell_angle_gamma    119.99999999999984

_symmetry_space_group_name_H-M    'P 1'
loop_
_atom_site_label
_atom_site_type_symbol
_atom_site_fract_x
_atom_site_fract_y
_atom_site_fract_z
_atom_site_occupancy
Si2   Si   0.485409189421896   0.409371261377612   0.375000000000000   1.0000000
N2   N   0.111126457928800   0.055555454119511   0.124995652985631   1.0000000
N2   N   0.611165045848621   0.555629390472029   0.124052373323833   1.0000000
N2   N   0.444468654637777   0.055552474697746   0.125013777766055   1.0000000
N2   N   0.944451417740639   0.555558941825168   0.125033098202140   1.0000000
N2   N   0.777810738751611   0.055572036042474   0.124999634418478   1.0000000
N2   N   0.111117502185140   0.722225417759235   0.624992431119556   1.0000000
N2   N   0.444468654637777   0.722249513273367   0.624986222233945   1.0000000
N2   N   0.277783952817661   0.222214755571744   0.625089952634311   1.0000000
N2   N   0.777798486353886   0.722242117094464   0.625014799283178   1.0000000
N2   N   0.611138195615532   0.222211464950813   0.625092453290474   1.0000000
N2   N   0.944474071593934   0.222237735731805   0.624993460896633   1.0000000
N2   N   0.277793313189560   0.722234766755139   0.125012337983002   1.0000000
N2   N   0.111135848522909   0.222234590928119   0.124998473686669   1.0000000
N2   N   0.444475246732127   0.222217648513941   0.124856731081036   1.0000000
N2   N   0.611138195615532   0.722260063998048   0.124907546709526   1.0000000
N2   N   0.944451417740639   0.722225809248808   0.125033098202140   1.0000000
N2   N   0.777807443464497   0.222228720839350   0.125033184210604   1.0000000
N2   N   0.111121047308927   0.888888760332860   0.624999537550111   1.0000000
N2   N   0.444467915875096   0.888900624604212   0.624988307630518   1.0000000
N2   N   0.277783952817661   0.388902530579245   0.625089952634311   1.0000000
N2   N   0.611165045848621   0.388868988709922   0.625947626676168   1.0000000
N2   N   0.777807443464497   0.888912055958476   0.624966815789396   1.0000000
N2   N   0.944463150560519   0.388899556546146   0.624970271596634   1.0000000
N2   N   0.111126457928800   0.388904337142618   0.124995652985631   1.0000000
N2   N   0.277793313189560   0.888891879767750   0.125012337983002   1.0000000
N2   N   0.611139861942452   0.888913544709252   0.125016244844139   1.0000000
N2   N   0.444414642832436   0.388873988082882   0.125024957202786   1.0000000
N2   N   0.944463150560519   0.888896927347701   0.125029728403365   1.0000000
N2   N   0.777798486353886   0.388889702592751   0.124985200716822   1.0000000
N2   N   0.277796281649628   0.555574714760139   0.624991052603572   1.0000000
N2   N   0.111126457928800   0.055555454119511   0.625004347014369   1.0000000
N2   N   0.611165045848621   0.555629390472029   0.625947626676168   1.0000000
N2   N   0.444468654637777   0.055552474697746   0.624986222233945   1.0000000
N2   N   0.944451417740639   0.555558941825168   0.624966901797860   1.0000000
N2   N   0.111121047308927   0.555565620309394   0.125000462449889   1.0000000
N2   N   0.777810738751611   0.055572036042474   0.625000365581524   1.0000000
N2   N   0.277796281649628   0.055554900222825   0.125008947396428   1.0000000
N2   N   0.444475246732127   0.555590931551522   0.124856731081036   1.0000000
N2   N   0.777788036987697   0.555560685160517   0.124911109878509   1.0000000
N2   N   0.611139861942452   0.055559650566528   0.125016244844139   1.0000000
N2   N   0.444475246732127   0.555590931551522   0.625143268918964   1.0000000
N2   N   0.944474071593934   0.055569669195465   0.125006539103367   1.0000000
N2   N   0.277793313189560   0.722234766755139   0.624987662016998   1.0000000
N2   N   0.111135848522909   0.222234590928119   0.625001526313331   1.0000000
N2   N   0.444475246732127   0.222217648513941   0.625143268918964   1.0000000
N2   N   0.611138195615532   0.722260063998048   0.625092453290474   1.0000000
N2   N   0.944451417740639   0.722225809248808   0.624966901797860   1.0000000
N2   N   0.777807443464497   0.222228720839350   0.624966815789396   1.0000000
N2   N   0.111117502185140   0.722225417759235   0.125007568880444   1.0000000
N2   N   0.444468654637777   0.722249513273367   0.125013777766055   1.0000000
N2   N   0.277783952817661   0.222214755571744   0.124910047365689   1.0000000
N2   N   0.777798486353886   0.722242117094464   0.124985200716822   1.0000000
N2   N   0.611138195615532   0.222211464950813   0.124907546709526   1.0000000
N2   N   0.944474071593934   0.222237735731805   0.125006539103367   1.0000000
N2   N   0.111126457928800   0.388904337142618   0.625004347014369   1.0000000
N2   N   0.277793313189560   0.888891879767750   0.624987662016998   1.0000000
N2   N   0.611139861942452   0.888913544709252   0.624983755155861   1.0000000
N2   N   0.444414642832436   0.388873988082882   0.624975042797214   1.0000000
N2   N   0.944463150560519   0.888896927347701   0.624970271596634   1.0000000
N2   N   0.111121047308927   0.888888760332860   0.125000462449889   1.0000000
N2   N   0.777798486353886   0.388889702592751   0.625014799283178   1.0000000
N2   N   0.444467915875096   0.888900624604212   0.125011692369483   1.0000000
N2   N   0.277783952817661   0.388902530579245   0.124910047365689   1.0000000
N2   N   0.277796281649628   0.555574714760139   0.125008947396428   1.0000000
N2   N   0.611165045848621   0.388868988709922   0.124052373323833   1.0000000
N2   N   0.777807443464497   0.888912055958476   0.125033184210604   1.0000000
N2   N   0.944463150560519   0.388899556546146   0.125029728403365   1.0000000
N2   N   0.111121047308927   0.555565620309394   0.624999537550111   1.0000000
N2   N   0.277796281649628   0.055554900222825   0.624991052603572   1.0000000
N2   N   0.777788036987697   0.555560685160517   0.625088890121490   1.0000000
N2   N   0.611139861942452   0.055559650566528   0.624983755155861   1.0000000
N2   N   0.944474071593934   0.055569669195465   0.624993460896633   1.0000000
N2   N   0.058913933765939   0.113001564391577   0.375000000000000   1.0000000
N2   N   0.556010406901673   0.617390643373902   0.375000000000000   1.0000000
N2   N   0.388957848260235   0.107563582225948   0.375000000000000   1.0000000
N2   N   0.886350216498020   0.609841774915680   0.375000000000000   1.0000000
N2   N   0.724372894730235   0.111626822867325   0.375000000000000   1.0000000
N2   N   0.055545746919198   0.777773247570701   0.875000000000000   1.0000000
N2   N   0.388879794689754   0.777775063414228   0.875000000000000   1.0000000
N2   N   0.222213764399249   0.277773548866292   0.875000000000000   1.0000000
N2   N   0.722212824204731   0.777772511294977   0.875000000000000   1.0000000
N2   N   0.555543568134939   0.277769686973555   0.875000000000000   1.0000000
N2   N   0.888880878543661   0.277774704846147   0.875000000000000   1.0000000
N2   N   0.221441593275793   0.777387463304565   0.375000000000000   1.0000000
N2   N   0.058913933765939   0.279245702707697   0.375000000000000   1.0000000
N2   N   0.394720732336511   0.276676838196570   0.375000000000000   1.0000000
N2   N   0.556565477100855   0.780929857766161   0.375000000000000   1.0000000
N2   N   0.888254838802342   0.777535361425614   0.375000000000000   1.0000000
N2   N   0.723635418927733   0.277097072832528   0.375000000000000   1.0000000
N2   N   0.055544677254021   0.944438516099482   0.875000000000000   1.0000000
N2   N   0.388879794689754   0.944438064608862   0.875000000000000   1.0000000
N2   N   0.222211373895105   0.444439759208820   0.875000000000000   1.0000000
N2   N   0.555543809192811   0.444438571263070   0.875000000000000   1.0000000
N2   N   0.722210638989557   0.944438884878912   0.875000000000000   1.0000000
N2   N   0.888882142242730   0.444441432683837   0.875000000000000   1.0000000
N2   N   0.056619970573269   0.444953398404022   0.375000000000000   1.0000000
N2   N   0.221868909979873   0.943458626266187   0.375000000000000   1.0000000
N2   N   0.556663474812737   0.944998404073034   0.375000000000000   1.0000000
N2   N   0.394720732336511   0.451377227473276   0.375000000000000   1.0000000
N2   N   0.891105610909634   0.946008336112234   0.375000000000000   1.0000000
N2   N   0.718834038062725   0.442508771295464   0.375000000000000   1.0000000
N2   N   0.222210717090909   0.611106195610734   0.875000000000000   1.0000000
N2   N   0.055545716508760   0.111105430431369   0.875000000000000   1.0000000
N2   N   0.555543568134939   0.611107214494720   0.875000000000000   1.0000000
N2   N   0.388878824103852   0.111103952765401   0.875000000000000   1.0000000
N2   N   0.888883419766694   0.611108376550018   0.875000000000000   1.0000000
N2   N   0.054386772570405   0.610718548947069   0.375000000000000   1.0000000
N2   N   0.722210638989557   0.111105087443981   0.875000000000000   1.0000000
N2   N   0.225093066552361   0.112327942298486   0.375000000000000   1.0000000
N2   N   0.388957848260235   0.614727599367629   0.375000000000000   1.0000000
N2   N   0.718834038062725   0.609658600100596   0.375000000000000   1.0000000
N2   N   0.556565477100855   0.108968952668028   0.375000000000000   1.0000000
N2   N   0.388878824103852   0.611108204671794   0.875000000000000   1.0000000
N2   N   0.891779900407488   0.112556616870415   0.375000000000000   1.0000000
N2   N   0.222212088111245   0.777772710722290   0.875000000000000   1.0000000
N2   N   0.055545716508760   0.277773619410727   0.875000000000000   1.0000000
N2   N   0.388881727698051   0.277773420737524   0.875000000000000   1.0000000
N2   N   0.555543766168720   0.777774124678945   0.875000000000000   1.0000000
N2   N   0.888882142242730   0.777774042892230   0.875000000000000   1.0000000
N2   N   0.722212824204731   0.277773646243090   0.875000000000000   1.0000000
N2   N   0.054386772570405   0.777001556956672   0.375000000000000   1.0000000
N2   N   0.388870674824408   0.778907955187996   0.375000000000000   1.0000000
N2   N   0.227452059736471   0.280392696534904   0.375000000000000   1.0000000
N2   N   0.723635418927733   0.779871679428541   0.375000000000000   1.0000000
N2   N   0.556010406901673   0.271953096861106   0.375000000000000   1.0000000
N2   N   0.891105610909634   0.278430608130736   0.375000000000000   1.0000000
N2   N   0.055544677254021   0.444439494487867   0.875000000000000   1.0000000
N2   N   0.222210717090909   0.944437854813510   0.875000000000000   1.0000000
N2   N   0.555543686904304   0.944438510118816   0.875000000000000   1.0000000
N2   N   0.388881727698051   0.444441640293863   0.875000000000000   1.0000000
N2   N   0.888880878543661   0.944439507030850   0.875000000000000   1.0000000
N2   N   0.056619970573269   0.944999905502576   0.375000000000000   1.0000000
N2   N   0.722216904920338   0.444442765966135   0.875000000000000   1.0000000
N2   N   0.388870674824408   0.943296052969748   0.375000000000000   1.0000000
N2   N   0.225093066552361   0.446098457587211   0.375000000000000   1.0000000
N2   N   0.221868909979873   0.611743617047021   0.375000000000000   1.0000000
N2   N   0.724372894730235   0.946079405196247   0.375000000000000   1.0000000
N2   N   0.888254838802342   0.444052810710064   0.375000000000000   1.0000000
N2   N   0.055545746919198   0.611105832681832   0.875000000000000   1.0000000
N2   N   0.222211373895105   0.111104948019620   0.875000000000000   1.0000000
N2   N   0.722216904920338   0.611107472287539   0.875000000000000   1.0000000
N2   N   0.555543766168720   0.111102974823110   0.875000000000000   1.0000000
N2   N   0.888880152059186   0.111106742696264   0.875000000000000   1.0000000
B2   B   0.113700334785152   0.056737588310044   0.375000000000000   1.0000000
B2   B   0.608050639048153   0.560058016649305   0.375000000000000   1.0000000
B2   B   0.445256203146514   0.053533861139875   0.375000000000000   1.0000000
B2   B   0.943064876680934   0.555087583915793   0.375000000000000   1.0000000
B2   B   0.780547587841727   0.056940460587532   0.375000000000000   1.0000000
B2   B   0.111100612995078   0.722216973164203   0.875000000000000   1.0000000
B2   B   0.444432698192675   0.722213566903640   0.875000000000000   1.0000000
B2   B   0.277773306061162   0.222220676920203   0.875000000000000   1.0000000
B2   B   0.777764980880423   0.722211062557953   0.875000000000000   1.0000000
B2   B   0.611096800589815   0.222220250714073   0.875000000000000   1.0000000
B2   B   0.944438020594077   0.222219620367212   0.875000000000000   1.0000000
B2   B   0.277586199845867   0.722671363212662   0.375000000000000   1.0000000
B2   B   0.115656744486048   0.224495038909688   0.375000000000000   1.0000000
B2   B   0.444941628411353   0.217216082117115   0.375000000000000   1.0000000
B2   B   0.612906747617180   0.727150082757496   0.375000000000000   1.0000000
B2   B   0.943064876680934   0.721310626098478   0.375000000000000   1.0000000
B2   B   0.780091207277191   0.222546985064456   0.375000000000000   1.0000000
B2   B   0.111101447416117   0.888885746454699   0.875000000000000   1.0000000
B2   B   0.444432923010102   0.888883128171715   0.875000000000000   1.0000000
B2   B   0.277773306061162   0.388885962474288   0.875000000000000   1.0000000
B2   B   0.611095846759035   0.388886779483088   0.875000000000000   1.0000000
B2   B   0.777767301164169   0.888880503380502   0.875000000000000   1.0000000
B2   B   0.944436073044796   0.388885470223442   0.875000000000000   1.0000000
B2   B   0.113700334785152   0.390296079808436   0.375000000000000   1.0000000
B2   B   0.277586199845867   0.888248169966534   0.375000000000000   1.0000000
B2   B   0.613082324992042   0.891111590412685   0.375000000000000   1.0000000
B2   B   0.945321278080216   0.889297289600805   0.375000000000000   1.0000000
B2   B   0.776904738953549   0.388096021808851   0.375000000000000   1.0000000
B2   B   0.277769129911046   0.555548778566332   0.875000000000000   1.0000000
B2   B   0.111104418631112   0.055552855246291   0.875000000000000   1.0000000
B2   B   0.611095846759035   0.555542400609276   0.875000000000000   1.0000000
B2   B   0.444432698192675   0.055552464622371   0.875000000000000   1.0000000
B2   B   0.944434528911286   0.555550915089371   0.875000000000000   1.0000000
B2   B   0.110833321882270   0.555896286689221   0.375000000000000   1.0000000
B2   B   0.777768434494199   0.055550883913768   0.875000000000000   1.0000000
B2   B   0.278202443761989   0.054393721463091   0.375000000000000   1.0000000
B2   B   0.444941628411353   0.561058879627574   0.375000000000000   1.0000000
B2   B   0.774626528713703   0.553979931023519   0.375000000000000   1.0000000
B2   B   0.613082324992042   0.055304067912687   0.375000000000000   1.0000000
B2   B   0.444436644301260   0.555549004324846   0.875000000000000   1.0000000
B2   B   0.947596782745018   0.057322230515968   0.375000000000000   1.0000000
B2   B   0.277767356671557   0.722215490991838   0.875000000000000   1.0000000
B2   B   0.111106773328391   0.222220053330860   0.875000000000000   1.0000000
B2   B   0.444436644301260   0.222220973309750   0.875000000000000   1.0000000
B2   B   0.611096800589815   0.722209883209071   0.875000000000000   1.0000000
B2   B   0.944434528911286   0.722216947155250   0.875000000000000   1.0000000
B2   B   0.777767301164169   0.222220131116998   0.875000000000000   1.0000000
B2   B   0.110196904478725   0.721765118906027   0.375000000000000   1.0000000
B2   B   0.445256203146514   0.725055675339975   0.375000000000000   1.0000000
B2   B   0.283256149227655   0.224552374660966   0.375000000000000   1.0000000
B2   B   0.776904738953549   0.722142050478025   0.375000000000000   1.0000000
B2   B   0.612906747617180   0.219089998193012   0.375000000000000   1.0000000
B2   B   0.947596782745018   0.223607885562385   0.375000000000000   1.0000000
B2   B   0.111104418631112   0.388884896718149   0.875000000000000   1.0000000
B2   B   0.277767356671557   0.888885199013048   0.875000000000000   1.0000000
B2   B   0.611098417165370   0.888880713910512   0.875000000000000   1.0000000
B2   B   0.444443708623161   0.388888520978244   0.875000000000000   1.0000000
B2   B   0.944436073044796   0.888883936154683   0.875000000000000   1.0000000
B2   B   0.110833321882270   0.888270368526378   0.375000000000000   1.0000000
B2   B   0.777764980880423   0.388887251655800   0.875000000000000   1.0000000
B2   B   0.445252661632185   0.889292997482756   0.375000000000000   1.0000000
B2   B   0.283256149227655   0.392037107900019   0.375000000000000   1.0000000
B2   B   0.278202443761989   0.557142055632235   0.375000000000000   1.0000000
B2   B   0.608050639048153   0.381325955732177   0.375000000000000   1.0000000
B2   B   0.780091207277191   0.890877555546062   0.375000000000000   1.0000000
B2   B   0.945321278080216   0.389357321812743   0.375000000000000   1.0000000
B2   B   0.111101447416117   0.555549034294745   0.875000000000000   1.0000000
B2   B   0.277769129911046   0.055553684678050   0.875000000000000   1.0000000
B2   B   0.777763085922807   0.555548209628070   0.875000000000000   1.0000000
B2   B   0.611098417165370   0.055551036588187   0.875000000000000   1.0000000
B2   B   0.944438020594077   0.055551733560201   0.875000000000000   1.0000000
B2   B   0.055589514610173   0.111128960506194   0.125002298965522   1.0000000
B2   B   0.555591141947864   0.611130761280501   0.124602907126810   1.0000000
B2   B   0.388909111901034   0.111113651225711   0.124984046939880   1.0000000
B2   B   0.888883804178442   0.611108568755894   0.125002987604946   1.0000000
B2   B   0.722248813953415   0.111118347664346   0.124999867730847   1.0000000
B2   B   0.055565243368274   0.777784631953851   0.624996667163514   1.0000000
B2   B   0.388905852469472   0.777789387096370   0.624999154696975   1.0000000
B2   B   0.222251755543456   0.277792544438396   0.625011967675766   1.0000000
B2   B   0.722239741254879   0.777799732468281   0.625044906761307   1.0000000
B2   B   0.555591141947864   0.277793714000698   0.625397092873190   1.0000000
B2   B   0.888918108209592   0.277786294379099   0.624995156878009   1.0000000
B2   B   0.222233934756286   0.777783634044812   0.124999495864677   1.0000000
B2   B   0.055589514610173   0.277793887437315   0.125002298965522   1.0000000
B2   B   0.388867083773692   0.277717655741719   0.124982331014361   1.0000000
B2   B   0.555576428924035   0.777799673510008   0.124984848914548   1.0000000
B2   B   0.888902014561145   0.777791048553695   0.125006705503598   1.0000000
B2   B   0.722239741254879   0.277773342119932   0.124955093238692   1.0000000
B2   B   0.055576391049070   0.944456662193175   0.624997342986706   1.0000000
B2   B   0.388905852469472   0.944449798706436   0.624999154696975   1.0000000
B2   B   0.222240137663982   0.444457545697431   0.625002090922426   1.0000000
B2   B   0.555660747851251   0.444497040592290   0.625026519630411   1.0000000
B2   B   0.722248813953415   0.944463799622403   0.625000132269154   1.0000000
B2   B   0.888902014561145   0.444444299340785   0.624993294496402   1.0000000
B2   B   0.055576391049070   0.444453062189224   0.125002657013294   1.0000000
B2   B   0.222238302712024   0.944454087100834   0.125002828790890   1.0000000
B2   B   0.555578010060313   0.944455671696821   0.125000613604381   1.0000000
B2   B   0.388867083773692   0.444482761365308   0.124982331014361   1.0000000
B2   B   0.888918108209592   0.944465147163828   0.125004843121992   1.0000000
B2   B   0.722212550764322   0.444431703698705   0.124627727135571   1.0000000
B2   B   0.222238302712024   0.611117548944527   0.624997171209109   1.0000000
B2   B   0.055589514610173   0.111128960506194   0.624997701034478   1.0000000
B2   B   0.555591141947864   0.611130761280501   0.625397092873190   1.0000000
B2   B   0.388909111901034   0.111113651225711   0.625015953060120   1.0000000
B2   B   0.888883804178442   0.611108568755894   0.624997012395054   1.0000000
B2   B   0.055565243368274   0.611113944747758   0.125003332836485   1.0000000
B2   B   0.722248813953415   0.111118347664346   0.625000132269154   1.0000000
B2   B   0.222240137663982   0.111115925299886   0.124997909077573   1.0000000
B2   B   0.388909111901034   0.611128794008666   0.124984046939880   1.0000000
B2   B   0.722212550764322   0.611114180398954   0.124627727135571   1.0000000
B2   B   0.555576428924035   0.111110088747362   0.124984848914548   1.0000000
B2   B   0.388909111901034   0.611128794008666   0.625015953060120   1.0000000
B2   B   0.888922308670553   0.111127821001948   0.124999279417180   1.0000000
B2   B   0.222233934756286   0.777783634044812   0.625000504135322   1.0000000
B2   B   0.055589514610173   0.277793887437315   0.624997701034478   1.0000000
B2   B   0.388867083773692   0.277717655741719   0.625017668985639   1.0000000
B2   B   0.555576428924035   0.777799673510008   0.625015151085452   1.0000000
B2   B   0.888902014561145   0.777791048553695   0.624993294496402   1.0000000
B2   B   0.722239741254879   0.277773342119932   0.625044906761307   1.0000000
B2   B   0.055565243368274   0.777784631953851   0.125003332836485   1.0000000
B2   B   0.388905852469472   0.777789387096370   0.125000845303025   1.0000000
B2   B   0.222251755543456   0.277792544438396   0.124988032324234   1.0000000
B2   B   0.722239741254879   0.777799732468281   0.124955093238692   1.0000000
B2   B   0.555591141947864   0.277793714000698   0.124602907126810   1.0000000
B2   B   0.888918108209592   0.277786294379099   0.125004843121992   1.0000000
B2   B   0.055576391049070   0.444453062189224   0.624997342986706   1.0000000
B2   B   0.222238302712024   0.944454087100834   0.624997171209109   1.0000000
B2   B   0.555578010060313   0.944455671696820   0.624999386395619   1.0000000
B2   B   0.388867083773692   0.444482761365308   0.625017668985639   1.0000000
B2   B   0.888918108209592   0.944465147163828   0.624995156878009   1.0000000
B2   B   0.055576391049070   0.944456662193175   0.125002657013294   1.0000000
B2   B   0.722212550764322   0.444431703698705   0.625372272864429   1.0000000
B2   B   0.388905852469472   0.944449798706436   0.125000845303025   1.0000000
B2   B   0.222240137663982   0.444457545697431   0.124997909077573   1.0000000
B2   B   0.222238302712024   0.611117548944527   0.125002828790890   1.0000000
B2   B   0.555660747851251   0.444497040592290   0.124973480369590   1.0000000
B2   B   0.722248813953415   0.944463799622403   0.124999867730847   1.0000000
B2   B   0.888902014561145   0.444444299340785   0.125006705503598   1.0000000
B2   B   0.055565243368274   0.611113944747758   0.624996667163514   1.0000000
B2   B   0.222240137663982   0.111115925299886   0.625002090922426   1.0000000
B2   B   0.722212550764322   0.611114180398954   0.625372272864429   1.0000000
B2   B   0.555576428924035   0.111110088747362   0.625015151085452   1.0000000
B2   B   0.888922308670553   0.111127821001948   0.625000720582820   1.0000000


