data_1
_audit_creation_method   'vasp2cif'
_cell_length_a    14.93631414619966
_cell_length_b    14.936314146199727
_cell_length_c    13.341276283792837
_cell_angle_alpha    90.0
_cell_angle_beta    90.0
_cell_angle_gamma    119.99999999999984

_symmetry_space_group_name_H-M    'P 1'
loop_
_atom_site_label
_atom_site_type_symbol
_atom_site_fract_x
_atom_site_fract_y
_atom_site_fract_z
_atom_site_occupancy
P2   P   0.408761502666423   0.371047417999876   0.375000000000000   1.0000000
P2   P   0.555481697424184   0.444407515378756   0.375000000000000   1.0000000
N2   N   0.111597803014373   0.055833721713071   0.125392259028933   1.0000000
N2   N   0.611704620397675   0.556095795424652   0.121474904363419   1.0000000
N2   N   0.444891236064011   0.055781086059046   0.125247973827337   1.0000000
N2   N   0.944826220940870   0.555735354912483   0.125084512269815   1.0000000
N2   N   0.778259136122171   0.055796234727753   0.124765057226722   1.0000000
N2   N   0.111496745995606   0.722415039664468   0.624984998395448   1.0000000
N2   N   0.444891236064011   0.722443483338302   0.624752026172661   1.0000000
N2   N   0.278342949240083   0.222507703103159   0.625098775313687   1.0000000
N2   N   0.778246116575193   0.722554924474550   0.625371086258833   1.0000000
N2   N   0.611607708279306   0.222339277222875   0.625614680639995   1.0000000
N2   N   0.944926174979399   0.222435050090104   0.625021173548398   1.0000000
N2   N   0.278186987332819   0.722421000245352   0.125101151832700   1.0000000
N2   N   0.111644068828676   0.222488701081003   0.125525350666062   1.0000000
N2   N   0.444969186224499   0.222519888955533   0.124645367445737   1.0000000
N2   N   0.611607708279306   0.722601764389758   0.124385319360008   1.0000000
N2   N   0.944826220940870   0.722424199361721   0.125084512269815   1.0000000
N2   N   0.778265625690921   0.222383545409970   0.124785959464401   1.0000000
N2   N   0.111521635255112   0.889115109242358   0.624860558086063   1.0000000
N2   N   0.444863616720929   0.889098475027126   0.624987140550838   1.0000000
N2   N   0.278342949240083   0.389168579470251   0.625098775313687   1.0000000
N2   N   0.611704620397675   0.388942158306351   0.628525095636581   1.0000000
N2   N   0.778265625690921   0.889215413614276   0.625214040535597   1.0000000
N2   N   0.944896514947451   0.389066920853193   0.624937105395100   1.0000000
N2   N   0.111597803014373   0.389097414634629   0.125392259028933   1.0000000
N2   N   0.278186987332819   0.889099320420795   0.125101151832700   1.0000000
N2   N   0.611567463521227   0.889164317163455   0.124889912103011   1.0000000
N2   N   0.445320112049857   0.389326722691593   0.118619612540112   1.0000000
N2   N   0.944896514947451   0.889162927427583   0.125062894604899   1.0000000
N2   N   0.778246116575193   0.389024525433974   0.124628913741166   1.0000000
N2   N   0.278245195337819   0.555780467071818   0.624501462726174   1.0000000
N2   N   0.111597803014373   0.055833721713071   0.624607740971064   1.0000000
N2   N   0.611704620397675   0.556095795424652   0.628525095636581   1.0000000
N2   N   0.444891236064011   0.055781086059046   0.624752026172661   1.0000000
N2   N   0.944826220940870   0.555735354912483   0.624915487730185   1.0000000
N2   N   0.111521635255112   0.555739859346083   0.125139441913933   1.0000000
N2   N   0.778259136122171   0.055796234727753   0.625234942773281   1.0000000
N2   N   0.278245195337819   0.055798061599335   0.125498537273823   1.0000000
N2   N   0.444969186224499   0.555782630602306   0.124645367445737   1.0000000
N2   N   0.778147296205683   0.555740314769510   0.124272704415342   1.0000000
N2   N   0.611567463521227   0.055736479691100   0.124889912103011   1.0000000
N2   N   0.444969186224499   0.555782630602306   0.625354632554264   1.0000000
N2   N   0.944926174979399   0.055824458222630   0.124978826451603   1.0000000
N2   N   0.278186987332819   0.722421000245352   0.624898848167298   1.0000000
N2   N   0.111644068828676   0.222488701081003   0.624474649333935   1.0000000
N2   N   0.444969186224499   0.222519888955533   0.625354632554264   1.0000000
N2   N   0.611607708279306   0.722601764389758   0.625614680639995   1.0000000
N2   N   0.944826220940870   0.722424199361721   0.624915487730185   1.0000000
N2   N   0.778265625690921   0.222383545409970   0.625214040535597   1.0000000
N2   N   0.111496745995606   0.722415039664468   0.125015001604549   1.0000000
N2   N   0.444891236064011   0.722443483338302   0.125247973827337   1.0000000
N2   N   0.278342949240083   0.222507703103159   0.124901224686311   1.0000000
N2   N   0.778246116575193   0.722554924474550   0.124628913741166   1.0000000
N2   N   0.611607708279306   0.222339277222875   0.124385319360008   1.0000000
N2   N   0.944926174979399   0.222435050090104   0.124978826451603   1.0000000
N2   N   0.111597803014373   0.389097414634629   0.624607740971064   1.0000000
N2   N   0.278186987332819   0.889099320420795   0.624898848167298   1.0000000
N2   N   0.611567463521227   0.889164317163455   0.625110087896991   1.0000000
N2   N   0.445320112049857   0.389326722691593   0.631380387459889   1.0000000
N2   N   0.944896514947451   0.889162927427583   0.624937105395100   1.0000000
N2   N   0.111521635255112   0.889115109242358   0.125139441913933   1.0000000
N2   N   0.778246116575193   0.389024525433974   0.625371086258833   1.0000000
N2   N   0.444863616720929   0.889098475027126   0.125012859449159   1.0000000
N2   N   0.278342949240083   0.389168579470251   0.124901224686311   1.0000000
N2   N   0.278245195337819   0.555780467071818   0.125498537273823   1.0000000
N2   N   0.611704620397675   0.388942158306351   0.121474904363419   1.0000000
N2   N   0.778265625690921   0.889215413614276   0.124785959464401   1.0000000
N2   N   0.944896514947451   0.389066920853193   0.125062894604899   1.0000000
N2   N   0.111521635255112   0.555739859346083   0.624860558086063   1.0000000
N2   N   0.278245195337819   0.055798061599335   0.624501462726174   1.0000000
N2   N   0.778147296205683   0.555740314769510   0.625727295584658   1.0000000
N2   N   0.611567463521227   0.055736479691100   0.625110087896991   1.0000000
N2   N   0.944926174979399   0.055824458222630   0.625021173548398   1.0000000
N2   N   0.055767589177207   0.110865794488376   0.375000000000000   1.0000000
N2   N   0.556223869138892   0.622803943452238   0.375000000000000   1.0000000
N2   N   0.386432153244003   0.099799829282256   0.375000000000000   1.0000000
N2   N   0.888555143640131   0.610944238486737   0.375000000000000   1.0000000
N2   N   0.723719219775716   0.110637908746353   0.375000000000000   1.0000000
N2   N   0.055495377901769   0.777746235086782   0.875000000000000   1.0000000
N2   N   0.388808837100515   0.777741884903413   0.875000000000000   1.0000000
N2   N   0.222147553350244   0.277740443341788   0.875000000000000   1.0000000
N2   N   0.722147726134544   0.777730100887948   0.875000000000000   1.0000000
N2   N   0.555459997513910   0.277717350993941   0.875000000000000   1.0000000
N2   N   0.888821339618411   0.277751003544081   0.875000000000000   1.0000000
N2   N   0.219968308769220   0.776650821051275   0.375000000000000   1.0000000
N2   N   0.055767589177207   0.278235128022167   0.375000000000000   1.0000000
N2   N   0.378592688049708   0.248861181090799   0.375000000000000   1.0000000
N2   N   0.555877957488393   0.783272100202983   0.375000000000000   1.0000000
N2   N   0.890482301360710   0.779584738490364   0.375000000000000   1.0000000
N2   N   0.724218943595187   0.275582895396424   0.375000000000000   1.0000000
N2   N   0.055489652705434   0.944407153440960   0.875000000000000   1.0000000
N2   N   0.388808837100515   0.944400285530434   0.875000000000000   1.0000000
N2   N   0.222148838239382   0.444416734768378   0.875000000000000   1.0000000
N2   N   0.555512767989850   0.444423050661589   0.875000000000000   1.0000000
N2   N   0.722145725555221   0.944402611636599   0.875000000000000   1.0000000
N2   N   0.888832231128508   0.444421141128183   0.875000000000000   1.0000000
N2   N   0.053715208688087   0.445148252929147   0.375000000000000   1.0000000
N2   N   0.219539052777349   0.939931505578769   0.375000000000000   1.0000000
N2   N   0.555850109982644   0.944591721657987   0.375000000000000   1.0000000
N2   N   0.378592688049708   0.463064840292245   0.375000000000000   1.0000000
N2   N   0.890093168886404   0.945842613916215   0.375000000000000   1.0000000
N2   N   0.727927240666766   0.443182689299090   0.375000000000000   1.0000000
N2   N   0.222145744295685   0.611079189725091   0.875000000000000   1.0000000
N2   N   0.055490390628874   0.111073691426612   0.875000000000000   1.0000000
N2   N   0.555459997513910   0.611075979853303   0.875000000000000   1.0000000
N2   N   0.388804699204790   0.111058429921220   0.875000000000000   1.0000000
N2   N   0.888844609440008   0.611088971386674   0.875000000000000   1.0000000
N2   N   0.053961568557357   0.611033486333775   0.375000000000000   1.0000000
N2   N   0.722145725555221   0.111076447251958   0.875000000000000   1.0000000
N2   N   0.216186273060142   0.101959295744590   0.375000000000000   1.0000000
N2   N   0.386432153244003   0.619965657295089   0.375000000000000   1.0000000
N2   N   0.727927240666766   0.618077884701013   0.375000000000000   1.0000000
N2   N   0.555877957488393   0.105939190618746   0.375000000000000   1.0000000
N2   N   0.388804699204790   0.611079602616916   0.875000000000000   1.0000000
N2   N   0.890233493849842   0.111783413591591   0.375000000000000   1.0000000
N2   N   0.222150121297100   0.777741727315218   0.875000000000000   1.0000000
N2   N   0.055490390628874   0.277750032535598   0.875000000000000   1.0000000
N2   N   0.388800199600074   0.277720331276568   0.875000000000000   1.0000000
N2   N   0.555467392055010   0.777738977130743   0.875000000000000   1.0000000
N2   N   0.888832231128508   0.777744423333658   0.875000000000000   1.0000000
N2   N   0.722147726134544   0.277750958579932   0.875000000000000   1.0000000
N2   N   0.053961568557357   0.776261415556918   0.375000000000000   1.0000000
N2   N   0.387250273080895   0.780032649989600   0.375000000000000   1.0000000
N2   N   0.222271237154717   0.277802285244026   0.375000000000000   1.0000000
N2   N   0.724218943595187   0.781969381532096   0.375000000000000   1.0000000
N2   N   0.556223869138892   0.266753259019989   0.375000000000000   1.0000000
N2   N   0.890093168886404   0.277583888303521   0.375000000000000   1.0000000
N2   N   0.055489652705434   0.444415832597804   0.875000000000000   1.0000000
N2   N   0.222145744295685   0.944399887903933   0.875000000000000   1.0000000
N2   N   0.555470757154285   0.944402045243805   0.875000000000000   1.0000000
N2   N   0.388800199600074   0.444413201656842   0.875000000000000   1.0000000
N2   N   0.888821339618411   0.944403669407664   0.875000000000000   1.0000000
N2   N   0.053715208688087   0.941900289092269   0.375000000000000   1.0000000
N2   N   0.722176844817906   0.444428604582152   0.875000000000000   1.0000000
N2   N   0.387250273080895   0.940550956424629   0.375000000000000   1.0000000
N2   N   0.216186273060142   0.447560310648887   0.375000000000000   1.0000000
N2   N   0.219539052777349   0.612940880531913   0.375000000000000   1.0000000
N2   N   0.723719219775716   0.946414644362701   0.375000000000000   1.0000000
N2   N   0.890482301360710   0.444230896203684   0.375000000000000   1.0000000
N2   N   0.055495377901769   0.611082476148325   0.875000000000000   1.0000000
N2   N   0.222148838239382   0.111065436804342   0.875000000000000   1.0000000
N2   N   0.722176844817906   0.611081573569090   0.875000000000000   1.0000000
N2   N   0.555467392055010   0.111061748257602   0.875000000000000   1.0000000
N2   N   0.888822911779244   0.111078122556293   0.875000000000000   1.0000000
B2   B   0.107574310028878   0.051533823366131   0.375000000000000   1.0000000
B2   B   0.618960286125118   0.575924404252879   0.375000000000000   1.0000000
B2   B   0.444304661893937   0.049453165320503   0.375000000000000   1.0000000
B2   B   0.943643059165886   0.555128602753989   0.375000000000000   1.0000000
B2   B   0.779570793343165   0.056452063338251   0.375000000000000   1.0000000
B2   B   0.111043642480174   0.722188487906749   0.875000000000000   1.0000000
B2   B   0.444354496016217   0.722133937487564   0.875000000000000   1.0000000
B2   B   0.277793155977447   0.222254277914885   0.875000000000000   1.0000000
B2   B   0.777660233469745   0.722117948933500   0.875000000000000   1.0000000
B2   B   0.610983262752733   0.222225133676622   0.875000000000000   1.0000000
B2   B   0.944405963004013   0.222209761472216   0.875000000000000   1.0000000
B2   B   0.276286478790079   0.723183712161810   0.375000000000000   1.0000000
B2   B   0.111491352393358   0.222412342863343   0.375000000000000   1.0000000
B2   B   0.443441407158279   0.208726635342709   0.375000000000000   1.0000000
B2   B   0.612814728904990   0.730492481703134   0.375000000000000   1.0000000
B2   B   0.943643059165886   0.721847789745235   0.375000000000000   1.0000000
B2   B   0.779499583934727   0.221228280656984   0.375000000000000   1.0000000
B2   B   0.111055999459306   0.888868847680008   0.875000000000000   1.0000000
B2   B   0.444356803844147   0.888845068588736   0.875000000000000   1.0000000
B2   B   0.277793155977447   0.388872211395890   0.875000000000000   1.0000000
B2   B   0.610979188542655   0.388873472753663   0.875000000000000   1.0000000
B2   B   0.777683675199848   0.888804641847627   0.875000000000000   1.0000000
B2   B   0.944378295374604   0.388869677096211   0.875000000000000   1.0000000
B2   B   0.107574310028878   0.389373819996077   0.375000000000000   1.0000000
B2   B   0.276286478790079   0.886436099961595   0.375000000000000   1.0000000
B2   B   0.612720237730010   0.892019602076964   0.375000000000000   1.0000000
B2   B   0.944353097906551   0.889224341185656   0.375000000000000   1.0000000
B2   B   0.781092656264860   0.387291870895015   0.375000000000000   1.0000000
B2   B   0.277733965246012   0.555498529299691   0.875000000000000   1.0000000
B2   B   0.111095624828719   0.055557134717146   0.875000000000000   1.0000000
B2   B   0.610979188542655   0.555439049122320   0.875000000000000   1.0000000
B2   B   0.444354496016217   0.055553891861987   0.875000000000000   1.0000000
B2   B   0.944360446108861   0.555524615465981   0.875000000000000   1.0000000
B2   B   0.109119882494287   0.555977032854867   0.375000000000000   1.0000000
B2   B   0.777701308103941   0.055517320718639   0.875000000000000   1.0000000
B2   B   0.275416702242951   0.049536608707497   0.375000000000000   1.0000000
B2   B   0.443441407158279   0.568048105148908   0.375000000000000   1.0000000
B2   B   0.777893306521965   0.555613319927649   0.375000000000000   1.0000000
B2   B   0.612720237730010   0.054033968986377   0.375000000000000   1.0000000
B2   B   0.444358494234839   0.555444204699335   0.875000000000000   1.0000000
B2   B   0.945493922173315   0.056414818343161   0.375000000000000   1.0000000
B2   B   0.277711830898149   0.722174406241870   0.875000000000000   1.0000000
B2   B   0.111124006650579   0.222228669991954   0.875000000000000   1.0000000
B2   B   0.444358494234839   0.222247622868838   0.875000000000000   1.0000000
B2   B   0.610983262752733   0.722091462409438   0.875000000000000   1.0000000
B2   B   0.944360446108861   0.722169163976215   0.875000000000000   1.0000000
B2   B   0.777683675199848   0.222212366685550   0.875000000000000   1.0000000
B2   B   0.109428161724065   0.721380747528694   0.375000000000000   1.0000000
B2   B   0.444304661893937   0.728184829906768   0.375000000000000   1.0000000
B2   B   0.271249888283132   0.210690320329337   0.375000000000000   1.0000000
B2   B   0.781092656264860   0.727134118703178   0.375000000000000   1.0000000
B2   B   0.612814728904990   0.215655580535188   0.375000000000000   1.0000000
B2   B   0.945493922173315   0.222412437163492   0.375000000000000   1.0000000
B2   B   0.111095624828719   0.388871823444901   0.875000000000000   1.0000000
B2   B   0.277711830898149   0.888870757989608   0.875000000000000   1.0000000
B2   B   0.611009860666870   0.888813784365128   0.875000000000000   1.0000000
B2   B   0.444404219836670   0.388868776584999   0.875000000000000   1.0000000
B2   B   0.944378295374604   0.888841951611722   0.875000000000000   1.0000000
B2   B   0.109119882494287   0.886476182972751   0.375000000000000   1.0000000
B2   B   0.777660233469745   0.388875617869577   0.875000000000000   1.0000000
B2   B   0.444577867996986   0.888955600665154   0.375000000000000   1.0000000
B2   B   0.271249888283132   0.393892901287121   0.375000000000000   1.0000000
B2   B   0.275416702242951   0.559213426868791   0.375000000000000   1.0000000
B2   B   0.618960286125118   0.376369215205566   0.375000000000000   1.0000000
B2   B   0.779499583934727   0.891604636611072   0.375000000000000   1.0000000
B2   B   0.944353097906551   0.388462090054220   0.375000000000000   1.0000000
B2   B   0.111055999459306   0.555520485112628   0.875000000000000   1.0000000
B2   B   0.277733965246012   0.055568769279657   0.875000000000000   1.0000000
B2   B   0.777655800426016   0.555494566879674   0.875000000000000   1.0000000
B2   B   0.611009860666870   0.055529409635075   0.875000000000000   1.0000000
B2   B   0.944405963004013   0.055529534865132   0.875000000000000   1.0000000
B2   B   0.056123004486049   0.111458603843166   0.125470351650211   1.0000000
B2   B   0.556049575443513   0.611249873970756   0.123755624474406   1.0000000
B2   B   0.389456287228849   0.111632979164494   0.125623407232653   1.0000000
B2   B   0.889104503904909   0.611218918619127   0.125043279602102   1.0000000
B2   B   0.722659284601482   0.111308711892045   0.124954629468780   1.0000000
B2   B   0.055918824191999   0.777994886255920   0.624820185080841   1.0000000
B2   B   0.389352639693553   0.777941463396486   0.624736643819967   1.0000000
B2   B   0.223031306681220   0.278182320007277   0.624282881178217   1.0000000
B2   B   0.722598409681823   0.778020463041828   0.625242736715465   1.0000000
B2   B   0.556049575443513   0.278133034806092   0.626244375525594   1.0000000
B2   B   0.889339897966973   0.277943238873207   0.624927315592476   1.0000000
B2   B   0.222655125457531   0.777994229395431   0.125140814536132   1.0000000
B2   B   0.056123004486049   0.277997733976219   0.125470351650211   1.0000000
B2   B   0.389691141437094   0.278581060823640   0.124256581650562   1.0000000
B2   B   0.556022226070632   0.777977624967003   0.125083630066681   1.0000000
B2   B   0.889235459051839   0.778008274496675   0.125108291130137   1.0000000
B2   B   0.722598409681823   0.277911279973329   0.124757263284531   1.0000000
B2   B   0.056035821870394   0.944785573893344   0.624673812031602   1.0000000
B2   B   0.389352639693553   0.944744509630406   0.624736643819967   1.0000000
B2   B   0.222914537381648   0.444587586974259   0.624421675878550   1.0000000
B2   B   0.556018745696240   0.444676039514784   0.627851989887020   1.0000000
B2   B   0.722659284601482   0.944683906042769   0.625045370531219   1.0000000
B2   B   0.889235459051839   0.444560517888501   0.624891708869861   1.0000000
B2   B   0.056035821870394   0.444583581310379   0.125326187968403   1.0000000
B2   B   0.222723305622575   0.944812440182891   0.125379192850837   1.0000000
B2   B   0.556004999639301   0.944669166486312   0.125092036279361   1.0000000
B2   B   0.389691141437094   0.444443413946790   0.124256581650562   1.0000000
B2   B   0.889339897966973   0.944729992427101   0.125072684407521   1.0000000
B2   B   0.722416033216682   0.444485870895831   0.123799122116526   1.0000000
B2   B   0.222723305622575   0.611244198773021   0.624620807149162   1.0000000
B2   B   0.056123004486049   0.111458603843166   0.624529648349791   1.0000000
B2   B   0.556049575443513   0.611249873970756   0.626244375525594   1.0000000
B2   B   0.389456287228849   0.111632979164494   0.624376592767347   1.0000000
B2   B   0.889104503904909   0.611218918619127   0.624956720397898   1.0000000
B2   B   0.055918824191999   0.611257271269412   0.125179814919162   1.0000000
B2   B   0.722659284601482   0.111308711892045   0.625045370531219   1.0000000
B2   B   0.222914537381648   0.111660283740724   0.125578324121448   1.0000000
B2   B   0.389456287228849   0.611156641397697   0.125623407232653   1.0000000
B2   B   0.722416033216682   0.611263495654188   0.123799122116526   1.0000000
B2   B   0.556022226070632   0.111377934436967   0.125083630066681   1.0000000
B2   B   0.389456287228849   0.611156641397697   0.624376592767347   1.0000000
B2   B   0.889373933372809   0.111353633353076   0.125026008302450   1.0000000
B2   B   0.222655125457531   0.777994229395431   0.624859185463867   1.0000000
B2   B   0.056123004486049   0.277997733976219   0.624529648349791   1.0000000
B2   B   0.389691141437094   0.278581060823640   0.625743418349438   1.0000000
B2   B   0.556022226070632   0.777977624967003   0.624916369933321   1.0000000
B2   B   0.889235459051839   0.778008274496675   0.624891708869861   1.0000000
B2   B   0.722598409681823   0.277911279973329   0.625242736715465   1.0000000
B2   B   0.055918824191999   0.777994886255920   0.125179814919162   1.0000000
B2   B   0.389352639693553   0.777941463396486   0.125263356180034   1.0000000
B2   B   0.223031306681220   0.278182320007277   0.125717118821780   1.0000000
B2   B   0.722598409681823   0.778020463041828   0.124757263284531   1.0000000
B2   B   0.556049575443513   0.278133034806092   0.123755624474406   1.0000000
B2   B   0.889339897966973   0.277943238873207   0.125072684407521   1.0000000
B2   B   0.056035821870394   0.444583581310379   0.624673812031602   1.0000000
B2   B   0.222723305622575   0.944812440182891   0.624620807149162   1.0000000
B2   B   0.556004999639301   0.944669166486312   0.624907963720641   1.0000000
B2   B   0.389691141437094   0.444443413946790   0.625743418349438   1.0000000
B2   B   0.889339897966973   0.944729992427101   0.624927315592476   1.0000000
B2   B   0.056035821870394   0.944785573893344   0.125326187968403   1.0000000
B2   B   0.722416033216682   0.444485870895831   0.626200877883474   1.0000000
B2   B   0.389352639693553   0.944744509630406   0.125263356180034   1.0000000
B2   B   0.222914537381648   0.444587586974259   0.125578324121448   1.0000000
B2   B   0.222723305622575   0.611244198773021   0.125379192850837   1.0000000
B2   B   0.556018745696240   0.444676039514784   0.122148010112982   1.0000000
B2   B   0.722659284601482   0.944683906042769   0.124954629468780   1.0000000
B2   B   0.889235459051839   0.444560517888501   0.125108291130137   1.0000000
B2   B   0.055918824191999   0.611257271269412   0.624820185080841   1.0000000
B2   B   0.222914537381648   0.111660283740724   0.624421675878550   1.0000000
B2   B   0.722416033216682   0.611263495654188   0.626200877883474   1.0000000
B2   B   0.556022226070632   0.111377934436967   0.624916369933321   1.0000000
B2   B   0.889373933372809   0.111353633353076   0.624973991697549   1.0000000


