data_1
_audit_creation_method   'vasp2cif'
_cell_length_a    14.93631414619966
_cell_length_b    14.936314146199727
_cell_length_c    13.341276283792837
_cell_angle_alpha    90.0
_cell_angle_beta    90.0
_cell_angle_gamma    119.99999999999984

_symmetry_space_group_name_H-M    'P 1'
loop_
_atom_site_label
_atom_site_type_symbol
_atom_site_fract_x
_atom_site_fract_y
_atom_site_fract_z
_atom_site_occupancy
Se2   Se   0.514944562874268   0.424138948103798   0.375000000000000   1.0000000
N2   N   0.111054694781345   0.055524147497405   0.124939065042695   1.0000000
N2   N   0.611058461605007   0.555559502436099   0.124095566932985   1.0000000
N2   N   0.444447820947757   0.055546018947513   0.124920466564827   1.0000000
N2   N   0.944390416232745   0.555528943942373   0.124933929732892   1.0000000
N2   N   0.777765888975398   0.055549611154367   0.124840803057848   1.0000000
N2   N   0.111083023792793   0.722208178563061   0.625113747199042   1.0000000
N2   N   0.444447820947757   0.722235135333580   0.625079533435173   1.0000000
N2   N   0.277677009587806   0.222167327960408   0.625312349850785   1.0000000
N2   N   0.777720253079341   0.722200754793670   0.625099279726373   1.0000000
N2   N   0.611091013566195   0.222183457243766   0.625216533425455   1.0000000
N2   N   0.944401523183006   0.222201009025447   0.625128558212741   1.0000000
N2   N   0.277774367712022   0.722220314987169   0.124906572339016   1.0000000
N2   N   0.111035902821364   0.222184618077347   0.124921530644464   1.0000000
N2   N   0.444427286550815   0.222194529490022   0.124537243221066   1.0000000
N2   N   0.611091013566195   0.722240889655759   0.124783466574545   1.0000000
N2   N   0.944390416232745   0.722194805623708   0.124933929732892   1.0000000
N2   N   0.777756165833801   0.222198465320675   0.124866418459982   1.0000000
N2   N   0.111080041252162   0.888874320743335   0.625103591421496   1.0000000
N2   N   0.444456121571873   0.888894727452601   0.625112287621905   1.0000000
N2   N   0.277677009587806   0.388843014960727   0.625312349850785   1.0000000
N2   N   0.611058461605007   0.388832292502238   0.625904433067015   1.0000000
N2   N   0.777756165833801   0.888891033846456   0.625133581540018   1.0000000
N2   N   0.944398528033390   0.388867137424956   0.625095393688718   1.0000000
N2   N   0.111054694781345   0.388863880617269   0.124939065042695   1.0000000
N2   N   0.277774367712022   0.888887386058181   0.124906572339016   1.0000000
N2   N   0.611115578933686   0.888905606606306   0.124858058072856   1.0000000
N2   N   0.444248856481973   0.388791094907651   0.122678248053744   1.0000000
N2   N   0.944398528033390   0.888864723941762   0.124904606311282   1.0000000
N2   N   0.777720253079341   0.388852831618999   0.124900720273627   1.0000000
N2   N   0.277756829399530   0.555546266432915   0.625054250735346   1.0000000
N2   N   0.111054694781345   0.055524147497405   0.625060934957305   1.0000000
N2   N   0.611058461605007   0.555559502436099   0.625904433067015   1.0000000
N2   N   0.444447820947757   0.055546018947513   0.625079533435173   1.0000000
N2   N   0.944390416232745   0.555528943942373   0.625066070267108   1.0000000
N2   N   0.111080041252162   0.555539053842157   0.124896408578504   1.0000000
N2   N   0.777765888975398   0.055549611154367   0.625159196942151   1.0000000
N2   N   0.277756829399530   0.055543896299950   0.124945749264655   1.0000000
N2   N   0.444427286550815   0.555566090394129   0.124537243221066   1.0000000
N2   N   0.777701858071644   0.555517595702489   0.124914959730918   1.0000000
N2   N   0.611115578933686   0.055543305660709   0.124858058072856   1.0000000
N2   N   0.444427286550815   0.555566090394129   0.625462756778935   1.0000000
N2   N   0.944401523183006   0.055533847490895   0.124871441787258   1.0000000
N2   N   0.277774367712022   0.722220314987169   0.625093427660985   1.0000000
N2   N   0.111035902821364   0.222184618077347   0.625078469355537   1.0000000
N2   N   0.444427286550815   0.222194529490022   0.625462756778935   1.0000000
N2   N   0.611091013566195   0.722240889655759   0.625216533425455   1.0000000
N2   N   0.944390416232745   0.722194805623708   0.625066070267108   1.0000000
N2   N   0.777756165833801   0.222198465320675   0.625133581540018   1.0000000
N2   N   0.111083023792793   0.722208178563061   0.124886252800958   1.0000000
N2   N   0.444447820947757   0.722235135333580   0.124920466564827   1.0000000
N2   N   0.277677009587806   0.222167327960408   0.124687650149215   1.0000000
N2   N   0.777720253079341   0.722200754793670   0.124900720273627   1.0000000
N2   N   0.611091013566195   0.222183457243766   0.124783466574545   1.0000000
N2   N   0.944401523183006   0.222201009025447   0.124871441787258   1.0000000
N2   N   0.111054694781345   0.388863880617269   0.625060934957305   1.0000000
N2   N   0.277774367712022   0.888887386058181   0.625093427660985   1.0000000
N2   N   0.611115578933686   0.888905606606306   0.625141941927145   1.0000000
N2   N   0.444248856481973   0.388791094907651   0.627321751946256   1.0000000
N2   N   0.944398528033390   0.888864723941762   0.625095393688718   1.0000000
N2   N   0.111080041252162   0.888874320743335   0.124896408578504   1.0000000
N2   N   0.777720253079341   0.388852831618999   0.625099279726373   1.0000000
N2   N   0.444456121571873   0.888894727452601   0.124887712378095   1.0000000
N2   N   0.277677009587806   0.388843014960727   0.124687650149215   1.0000000
N2   N   0.277756829399530   0.555546266432915   0.124945749264655   1.0000000
N2   N   0.611058461605007   0.388832292502238   0.124095566932985   1.0000000
N2   N   0.777756165833801   0.888891033846456   0.124866418459982   1.0000000
N2   N   0.944398528033390   0.388867137424956   0.124904606311282   1.0000000
N2   N   0.111080041252162   0.555539053842157   0.625103591421496   1.0000000
N2   N   0.277756829399530   0.055543896299950   0.625054250735346   1.0000000
N2   N   0.777701858071644   0.555517595702489   0.625085040269082   1.0000000
N2   N   0.611115578933686   0.055543305660709   0.625141941927145   1.0000000
N2   N   0.944401523183006   0.055533847490895   0.625128558212741   1.0000000
N2   N   0.056735993873291   0.111829994916897   0.375000000000000   1.0000000
N2   N   0.554814749174696   0.620067735184694   0.375000000000000   1.0000000
N2   N   0.386384704719387   0.103679645363073   0.375000000000000   1.0000000
N2   N   0.884941323715616   0.609137328524480   0.375000000000000   1.0000000
N2   N   0.722701144670476   0.110393115465690   0.375000000000000   1.0000000
N2   N   0.055573849895973   0.777785749352534   0.875000000000000   1.0000000
N2   N   0.388903589919108   0.777787094709365   0.875000000000000   1.0000000
N2   N   0.222245347599500   0.277789340466418   0.875000000000000   1.0000000
N2   N   0.722245665146433   0.777785278420247   0.875000000000000   1.0000000
N2   N   0.555576217318263   0.277789465538515   0.875000000000000   1.0000000
N2   N   0.888914021913116   0.277794407436048   0.875000000000000   1.0000000
N2   N   0.218970914551208   0.776152123942273   0.375000000000000   1.0000000
N2   N   0.056735993873291   0.278239332289730   0.375000000000000   1.0000000
N2   N   0.387572621491456   0.266402561475107   0.375000000000000   1.0000000
N2   N   0.554653155931780   0.781547233966312   0.375000000000000   1.0000000
N2   N   0.887576543719613   0.777787659892552   0.375000000000000   1.0000000
N2   N   0.722490299496512   0.275423720583680   0.375000000000000   1.0000000
N2   N   0.055574934936339   0.944450335422598   0.875000000000000   1.0000000
N2   N   0.388903589919108   0.944449828543079   0.875000000000000   1.0000000
N2   N   0.222240328511373   0.444458823106430   0.875000000000000   1.0000000
N2   N   0.555584055092655   0.444458694212992   0.875000000000000   1.0000000
N2   N   0.722242005261955   0.944452789893031   0.875000000000000   1.0000000
N2   N   0.888915271958475   0.444460721910777   0.875000000000000   1.0000000
N2   N   0.054301863047883   0.444176050014830   0.375000000000000   1.0000000
N2   N   0.219259110349099   0.941365354944663   0.375000000000000   1.0000000
N2   N   0.554630640980922   0.943981987157125   0.375000000000000   1.0000000
N2   N   0.387572621491456   0.454503393349685   0.375000000000000   1.0000000
N2   N   0.889507894474052   0.945528108834430   0.375000000000000   1.0000000
N2   N   0.720433082339699   0.441322892014090   0.375000000000000   1.0000000
N2   N   0.222235151040739   0.611121594214865   0.875000000000000   1.0000000
N2   N   0.055579379860322   0.111120254193211   0.875000000000000   1.0000000
N2   N   0.555576217318263   0.611120085113083   0.875000000000000   1.0000000
N2   N   0.388904458523270   0.111114106595896   0.875000000000000   1.0000000
N2   N   0.888916563520460   0.611124948426901   0.875000000000000   1.0000000
N2   N   0.052318339905086   0.609850571379588   0.375000000000000   1.0000000
N2   N   0.722242005261955   0.111122548702259   0.875000000000000   1.0000000
N2   N   0.220995725071110   0.108662571623844   0.375000000000000   1.0000000
N2   N   0.386384704719387   0.616038392689657   0.375000000000000   1.0000000
N2   N   0.720433082339699   0.612443523658944   0.375000000000000   1.0000000
N2   N   0.554653155931780   0.106439255298804   0.375000000000000   1.0000000
N2   N   0.388904458523270   0.611123685260718   0.875000000000000   1.0000000
N2   N   0.889995938485678   0.111664635909511   0.375000000000000   1.0000000
N2   N   0.222235826983621   0.777784580158479   0.875000000000000   1.0000000
N2   N   0.055579379860322   0.277792459000448   0.875000000000000   1.0000000
N2   N   0.388908313820938   0.277780647787823   0.875000000000000   1.0000000
N2   N   0.555572685010779   0.777786086431963   0.875000000000000   1.0000000
N2   N   0.888915271958475   0.777787883381036   0.875000000000000   1.0000000
N2   N   0.722245665146433   0.277793720059521   0.875000000000000   1.0000000
N2   N   0.052318339905086   0.775801101858832   0.375000000000000   1.0000000
N2   N   0.386412664137033   0.778461402236029   0.375000000000000   1.0000000
N2   N   0.224799682051194   0.279066507692266   0.375000000000000   1.0000000
N2   N   0.722490299496512   0.780399912246168   0.375000000000000   1.0000000
N2   N   0.554814749174696   0.268080347323339   0.375000000000000   1.0000000
N2   N   0.889507894474052   0.277313118972958   0.375000000000000   1.0000000
N2   N   0.055574934936339   0.444457932847069   0.875000000000000   1.0000000
N2   N   0.222235151040739   0.944446890159209   0.875000000000000   1.0000000
N2   N   0.555570400548411   0.944451866940870   0.875000000000000   1.0000000
N2   N   0.388908313820938   0.444460999366452   0.875000000000000   1.0000000
N2   N   0.888914021913116   0.944452947810404   0.875000000000000   1.0000000
N2   N   0.054301863047883   0.943459146366383   0.375000000000000   1.0000000
N2   N   0.722251577870835   0.444461854880267   0.875000000000000   1.0000000
N2   N   0.386412664137033   0.941284595234340   0.375000000000000   1.0000000
N2   N   0.220995725071110   0.445666486780601   0.375000000000000   1.0000000
N2   N   0.219259110349099   0.611227088737770   0.375000000000000   1.0000000
N2   N   0.722701144670476   0.945641362538123   0.375000000000000   1.0000000
N2   N   0.887576543719613   0.443122217160395   0.375000000000000   1.0000000
N2   N   0.055573849895973   0.611121433876775   0.875000000000000   1.0000000
N2   N   0.222240328511373   0.111114838738278   0.875000000000000   1.0000000
N2   N   0.722251577870835   0.611123056323905   0.875000000000000   1.0000000
N2   N   0.555572685010779   0.111119931912152   0.875000000000000   1.0000000
N2   N   0.888913547563099   0.111123440448221   0.875000000000000   1.0000000
B2   B   0.111126294399174   0.054981650328603   0.375000000000000   1.0000000
B2   B   0.610077414703408   0.566600180928379   0.375000000000000   1.0000000
B2   B   0.442990366324574   0.051262538994854   0.375000000000000   1.0000000
B2   B   0.941333415643434   0.554119860654296   0.375000000000000   1.0000000
B2   B   0.778992970624167   0.056163151978751   0.375000000000000   1.0000000
B2   B   0.111132312521726   0.722232822927527   0.875000000000000   1.0000000
B2   B   0.444445608949713   0.722184384602313   0.875000000000000   1.0000000
B2   B   0.277850270796773   0.222277622219680   0.875000000000000   1.0000000
B2   B   0.777772240329981   0.722194184185660   0.875000000000000   1.0000000
B2   B   0.611095187631773   0.222261450446675   0.875000000000000   1.0000000
B2   B   0.944504651897429   0.222254058532301   0.875000000000000   1.0000000
B2   B   0.275216703721596   0.721769781712387   0.375000000000000   1.0000000
B2   B   0.114372273618845   0.223852803476087   0.375000000000000   1.0000000
B2   B   0.441526338407031   0.214142891122948   0.375000000000000   1.0000000
B2   B   0.611159898734930   0.728190485970456   0.375000000000000   1.0000000
B2   B   0.941333415643434   0.720546888322473   0.375000000000000   1.0000000
B2   B   0.778629955364507   0.221217382272590   0.375000000000000   1.0000000
B2   B   0.111145133572873   0.888918429183098   0.875000000000000   1.0000000
B2   B   0.444446180056766   0.888889756695047   0.875000000000000   1.0000000
B2   B   0.277850270796773   0.388905981910422   0.875000000000000   1.0000000
B2   B   0.611077023256962   0.388907299177023   0.875000000000000   1.0000000
B2   B   0.777793641463643   0.888876516501526   0.875000000000000   1.0000000
B2   B   0.944479643572201   0.388910973300672   0.875000000000000   1.0000000
B2   B   0.111126294399174   0.389477977403899   0.375000000000000   1.0000000
B2   B   0.275216703721596   0.886780255342538   0.375000000000000   1.0000000
B2   B   0.611310757826048   0.890832960698734   0.375000000000000   1.0000000
B2   B   0.943819073756855   0.888912090055869   0.375000000000000   1.0000000
B2   B   0.776857951158328   0.386647636012371   0.375000000000000   1.0000000
B2   B   0.277813893152154   0.555539602088996   0.875000000000000   1.0000000
B2   B   0.111180129826872   0.055603431567717   0.875000000000000   1.0000000
B2   B   0.611077023256962   0.555503057413267   0.875000000000000   1.0000000
B2   B   0.444445608949713   0.055594557680736   0.875000000000000   1.0000000
B2   B   0.944458578410392   0.555565608106851   0.875000000000000   1.0000000
B2   B   0.108641163018553   0.555017689750980   0.375000000000000   1.0000000
B2   B   0.777804461456834   0.055568897395085   0.875000000000000   1.0000000
B2   B   0.275741210458371   0.052489405544398   0.375000000000000   1.0000000
B2   B   0.441526338407031   0.560716780617419   0.375000000000000   1.0000000
B2   B   0.773171987990889   0.553252660662112   0.375000000000000   1.0000000
B2   B   0.611310757826048   0.053811130460643   0.375000000000000   1.0000000
B2   B   0.444445219245263   0.555504932926075   0.875000000000000   1.0000000
B2   B   0.946067540942088   0.056724653527127   0.375000000000000   1.0000000
B2   B   0.277794418079103   0.722214958105509   0.875000000000000   1.0000000
B2   B   0.111202439800892   0.222267886567110   0.875000000000000   1.0000000
B2   B   0.444445219245263   0.222273619652523   0.875000000000000   1.0000000
B2   B   0.611095187631773   0.722167070518426   0.875000000000000   1.0000000
B2   B   0.944458578410392   0.722226303636879   0.875000000000000   1.0000000
B2   B   0.777793641463643   0.222250458295447   0.875000000000000   1.0000000
B2   B   0.108039763880469   0.720686548606900   0.375000000000000   1.0000000
B2   B   0.442990366324574   0.725061160663055   0.375000000000000   1.0000000
B2   B   0.280673687677671   0.221894227892173   0.375000000000000   1.0000000
B2   B   0.776857951158328   0.723543648479287   0.375000000000000   1.0000000
B2   B   0.611159898734930   0.216302746097802   0.375000000000000   1.0000000
B2   B   0.946067540942088   0.222676220748296   0.375000000000000   1.0000000
B2   B   0.111180129826872   0.388910031592484   0.875000000000000   1.0000000
B2   B   0.277794418079103   0.888912793306924   0.875000000000000   1.0000000
B2   B   0.611111599165808   0.888870745193946   0.875000000000000   1.0000000
B2   B   0.444457431637640   0.388895382485484   0.875000000000000   1.0000000
B2   B   0.944479643572201   0.888902003604857   0.875000000000000   1.0000000
B2   B   0.108641163018553   0.886956806600901   0.375000000000000   1.0000000
B2   B   0.777772240329981   0.388911389477650   0.875000000000000   1.0000000
B2   B   0.443090513604067   0.888211923468698   0.375000000000000   1.0000000
B2   B   0.280673687677671   0.392112793118828   0.375000000000000   1.0000000
B2   B   0.275741210458371   0.556585138247308   0.375000000000000   1.0000000
B2   B   0.610077414703408   0.376810567108357   0.375000000000000   1.0000000
B2   B   0.778629955364507   0.890745906425244   0.375000000000000   1.0000000
B2   B   0.943819073756855   0.388240317034317   0.375000000000000   1.0000000
B2   B   0.111145133572873   0.555560037723102   0.875000000000000   1.0000000
B2   B   0.277813893152154   0.055607624396495   0.875000000000000   1.0000000
B2   B   0.777760249175667   0.555546791254501   0.875000000000000   1.0000000
B2   B   0.611111599165808   0.055574187305191   0.875000000000000   1.0000000
B2   B   0.944504651897429   0.055583926698464   0.875000000000000   1.0000000
B2   B   0.055616053129699   0.111181237751441   0.125193480903745   1.0000000
B2   B   0.555389004983479   0.610931969144425   0.124902953086865   1.0000000
B2   B   0.388922869222867   0.111290670167889   0.125285348531402   1.0000000
B2   B   0.888727239307470   0.611030286320407   0.125094943986725   1.0000000
B2   B   0.722198514803744   0.111101257193571   0.125016411409951   1.0000000
B2   B   0.055530284023299   0.777796938612257   0.624954351146920   1.0000000
B2   B   0.388923314985093   0.777740540305884   0.624893288464986   1.0000000
B2   B   0.222333606389708   0.277833469861522   0.624604964753404   1.0000000
B2   B   0.722105671071685   0.777709723833065   0.624959409267567   1.0000000
B2   B   0.555389004983479   0.277790369172391   0.625097046913135   1.0000000
B2   B   0.888868064204806   0.277744430603982   0.624949090346307   1.0000000
B2   B   0.222255528360960   0.777794430847149   0.125052719126037   1.0000000
B2   B   0.055616053129699   0.277768148711593   0.125193480903745   1.0000000
B2   B   0.388871791356022   0.277921609104554   0.125206338570542   1.0000000
B2   B   0.555518842558121   0.777707941204062   0.125087928077391   1.0000000
B2   B   0.888782609854923   0.777742206575613   0.125071357725687   1.0000000
B2   B   0.722105671071685   0.277729280571956   0.125040590732433   1.0000000
B2   B   0.055574834191993   0.944523828544452   0.624881555623600   1.0000000
B2   B   0.388923314985093   0.944516108012546   0.624893288464986   1.0000000
B2   B   0.222310392623558   0.444354271832968   0.624632042311736   1.0000000
B2   B   0.555167502373161   0.444250417853245   0.624950420302767   1.0000000
B2   B   0.722198514803744   0.944430590943509   0.624983588590049   1.0000000
B2   B   0.888782609854923   0.444373736612647   0.624928642274313   1.0000000
B2   B   0.055574834191993   0.444384338980870   0.125118444376400   1.0000000
B2   B   0.222278082259029   0.944575981985156   0.125148716654146   1.0000000
B2   B   0.555557409726821   0.944445371530074   0.125040453363095   1.0000000
B2   B   0.388871791356022   0.444283515584805   0.125206338570542   1.0000000
B2   B   0.888868064204806   0.944456966934160   0.125050909653693   1.0000000
B2   B   0.721931200461174   0.444313715845181   0.124907586182095   1.0000000
B2   B   0.222278082259029   0.611035433607208   0.624851283345854   1.0000000
B2   B   0.055616053129699   0.111181237751441   0.624806519096254   1.0000000
B2   B   0.555389004983479   0.610931969144425   0.625097046913135   1.0000000
B2   B   0.388922869222867   0.111290670167889   0.624714651468598   1.0000000
B2   B   0.888727239307470   0.611030286320407   0.624905056013275   1.0000000
B2   B   0.055530284023299   0.611066678744379   0.125045648853080   1.0000000
B2   B   0.722198514803744   0.111101257193571   0.624983588590049   1.0000000
B2   B   0.222310392623558   0.111289454123926   0.125367957688265   1.0000000
B2   B   0.388922869222867   0.610965532388322   0.125285348531402   1.0000000
B2   B   0.721931200461174   0.610950817949330   0.124907586182095   1.0000000
B2   B   0.555518842558121   0.111144234687395   0.125087928077391   1.0000000
B2   B   0.388922869222867   0.610965532388322   0.624714651468598   1.0000000
B2   B   0.888902194448945   0.111117763891144   0.125040728965757   1.0000000
B2   B   0.222255528360960   0.777794430847149   0.624947280873963   1.0000000
B2   B   0.055616053129699   0.277768148711593   0.624806519096254   1.0000000
B2   B   0.388871791356022   0.277921609104554   0.624793661429458   1.0000000
B2   B   0.555518842558121   0.777707941204062   0.624912071922609   1.0000000
B2   B   0.888782609854923   0.777742206575613   0.624928642274313   1.0000000
B2   B   0.722105671071685   0.277729280571956   0.624959409267567   1.0000000
B2   B   0.055530284023299   0.777796938612257   0.125045648853080   1.0000000
B2   B   0.388923314985093   0.777740540305884   0.125106711535014   1.0000000
B2   B   0.222333606389708   0.277833469861522   0.125395035246596   1.0000000
B2   B   0.722105671071685   0.777709723833065   0.125040590732433   1.0000000
B2   B   0.555389004983479   0.277790369172391   0.124902953086865   1.0000000
B2   B   0.888868064204806   0.277744430603982   0.125050909653693   1.0000000
B2   B   0.055574834191993   0.444384338980870   0.624881555623600   1.0000000
B2   B   0.222278082259029   0.944575981985156   0.624851283345854   1.0000000
B2   B   0.555557409726821   0.944445371530074   0.624959546636905   1.0000000
B2   B   0.388871791356022   0.444283515584805   0.624793661429458   1.0000000
B2   B   0.888868064204806   0.944456966934160   0.624949090346307   1.0000000
B2   B   0.055574834191993   0.944523828544452   0.125118444376400   1.0000000
B2   B   0.721931200461174   0.444313715845181   0.625092413817905   1.0000000
B2   B   0.388923314985093   0.944516108012546   0.125106711535014   1.0000000
B2   B   0.222310392623558   0.444354271832968   0.125367957688265   1.0000000
B2   B   0.222278082259029   0.611035433607208   0.125148716654146   1.0000000
B2   B   0.555167502373161   0.444250417853245   0.125049579697234   1.0000000
B2   B   0.722198514803744   0.944430590943509   0.125016411409951   1.0000000
B2   B   0.888782609854923   0.444373736612647   0.125071357725687   1.0000000
B2   B   0.055530284023299   0.611066678744379   0.624954351146920   1.0000000
B2   B   0.222310392623558   0.111289454123926   0.624632042311736   1.0000000
B2   B   0.721931200461174   0.610950817949330   0.625092413817905   1.0000000
B2   B   0.555518842558121   0.111144234687395   0.624912071922609   1.0000000
B2   B   0.888902194448945   0.111117763891144   0.624959271034243   1.0000000


