data_1
_audit_creation_method   'vasp2cif'
_cell_length_a    14.93631414619966
_cell_length_b    14.936314146199727
_cell_length_c    13.341276283792837
_cell_angle_alpha    90.0
_cell_angle_beta    90.0
_cell_angle_gamma    119.99999999999984

_symmetry_space_group_name_H-M    'P 1'
loop_
_atom_site_label
_atom_site_type_symbol
_atom_site_fract_x
_atom_site_fract_y
_atom_site_fract_z
_atom_site_occupancy
N2   N   0.112989173300847   0.057168436004550   0.125000000000000   1.0000000
N2   N   0.606301277559635   0.548766122556282   0.125000000000000   1.0000000
N2   N   0.444171225687326   0.056533642586251   0.125000000000000   1.0000000
N2   N   0.946541344684808   0.555631175691303   0.125000000000000   1.0000000
N2   N   0.777843075179614   0.055605687945627   0.125000000000000   1.0000000
N2   N   0.111109510019332   0.722217670823744   0.625000000000000   1.0000000
N2   N   0.444441985516390   0.722217379975140   0.625000000000000   1.0000000
N2   N   0.277775354830814   0.222222133014370   0.625000000000000   1.0000000
N2   N   0.777782104059587   0.722225305519611   0.625000000000000   1.0000000
N2   N   0.611111181085546   0.222221718328943   0.625000000000000   1.0000000
N2   N   0.944451183979222   0.222224200381614   0.625000000000000   1.0000000
N2   N   0.278061208573510   0.722485424852266   0.125000000000000   1.0000000
N2   N   0.113151701478257   0.222708492768572   0.125000000000000   1.0000000
N2   N   0.441312493495186   0.222910440280916   0.125000000000000   1.0000000
N2   N   0.610092144802221   0.720034663571173   0.125000000000000   1.0000000
N2   N   0.946616325106902   0.724322702989658   0.125000000000000   1.0000000
N2   N   0.777365926329062   0.221634755225315   0.125000000000000   1.0000000
N2   N   0.111112731918521   0.888891981245631   0.625000000000000   1.0000000
N2   N   0.444443688421075   0.888889738589920   0.625000000000000   1.0000000
N2   N   0.277777001717050   0.388886530412552   0.625000000000000   1.0000000
N2   N   0.611105852163787   0.388886437304019   0.625000000000000   1.0000000
N2   N   0.777784347739134   0.888893079640774   0.625000000000000   1.0000000
N2   N   0.944451784520734   0.388889150075081   0.625000000000000   1.0000000
N2   N   0.110979717380308   0.388706003378536   0.125000000000000   1.0000000
N2   N   0.278119821671654   0.889281547716898   0.125000000000000   1.0000000
N2   N   0.610901586768556   0.888510425018201   0.125000000000000   1.0000000
N2   N   0.944918496537375   0.889501545138478   0.125000000000000   1.0000000
N2   N   0.776818917935861   0.386747080658482   0.125000000000000   1.0000000
N2   N   0.277776378832415   0.555550717295554   0.625000000000000   1.0000000
N2   N   0.111115122499740   0.055559574419681   0.625000000000000   1.0000000
N2   N   0.611102909443610   0.555548312765243   0.625000000000000   1.0000000
N2   N   0.444444259156852   0.055555990032626   0.625000000000000   1.0000000
N2   N   0.944448804095692   0.555550575272954   0.625000000000000   1.0000000
N2   N   0.111779908441992   0.555429098479541   0.125000000000000   1.0000000
N2   N   0.777783071977535   0.055558652143124   0.625000000000000   1.0000000
N2   N   0.277839252068110   0.055568789637220   0.125000000000000   1.0000000
N2   N   0.442859591119303   0.555335308188312   0.125000000000000   1.0000000
N2   N   0.610750632908194   0.055934018732674   0.125000000000000   1.0000000
N2   N   0.444442651135822   0.555549219433083   0.625000000000000   1.0000000
N2   N   0.945226436607739   0.056033802592482   0.125000000000000   1.0000000
N2   N   0.277775771494416   0.722218563971508   0.625000000000000   1.0000000
N2   N   0.111113751433348   0.222222407615958   0.625000000000000   1.0000000
N2   N   0.444444134997659   0.222222138493735   0.625000000000000   1.0000000
N2   N   0.611109086923996   0.722217068182742   0.625000000000000   1.0000000
N2   N   0.944448221525594   0.722225718133185   0.625000000000000   1.0000000
N2   N   0.777782819081829   0.222224086920854   0.625000000000000   1.0000000
N2   N   0.111884154457822   0.722700982733332   0.125000000000000   1.0000000
N2   N   0.444289720844046   0.722432623124942   0.125000000000000   1.0000000
N2   N   0.283420478483732   0.224729948540803   0.125000000000000   1.0000000
N2   N   0.776502894299349   0.722767369551055   0.125000000000000   1.0000000
N2   N   0.609357317641808   0.223057433481807   0.125000000000000   1.0000000
N2   N   0.945033223313916   0.222211019343228   0.125000000000000   1.0000000
N2   N   0.111113732600418   0.388888347364654   0.625000000000000   1.0000000
N2   N   0.277778500914718   0.888889112596258   0.625000000000000   1.0000000
N2   N   0.611110587996806   0.888889847364916   0.625000000000000   1.0000000
N2   N   0.444439507144621   0.388885800551948   0.625000000000000   1.0000000
N2   N   0.944452642353262   0.888898275042784   0.625000000000000   1.0000000
N2   N   0.112019624418518   0.889986649905227   0.125000000000000   1.0000000
N2   N   0.777785113813023   0.388889141221311   0.625000000000000   1.0000000
N2   N   0.444487905082800   0.889425827045470   0.125000000000000   1.0000000
N2   N   0.277300935049486   0.389221350689353   0.125000000000000   1.0000000
N2   N   0.277529479375077   0.555627418882099   0.125000000000000   1.0000000
N2   N   0.607988128513493   0.389703933377317   0.125000000000000   1.0000000
N2   N   0.777677033344729   0.889209226692239   0.125000000000000   1.0000000
N2   N   0.944312059753861   0.388525529178470   0.125000000000000   1.0000000
N2   N   0.111110257493796   0.555550782011433   0.625000000000000   1.0000000
N2   N   0.277778739102489   0.055557545239360   0.625000000000000   1.0000000
N2   N   0.777780516109927   0.555555018414215   0.625000000000000   1.0000000
N2   N   0.611110191437162   0.055555781333058   0.625000000000000   1.0000000
N2   N   0.944453434237166   0.055560494502928   0.625000000000000   1.0000000
N2   N   0.055549472741194   0.111099681724193   0.374935843711287   1.0000000
N2   N   0.555565302968034   0.611113701434789   0.374848754690533   1.0000000
N2   N   0.388897625287582   0.111116063209278   0.374764599367208   1.0000000
N2   N   0.888919641615301   0.611126135173309   0.375524776577180   1.0000000
N2   N   0.722208566230976   0.111094729807674   0.374980766526865   1.0000000
N2   N   0.055564203133149   0.777779568014242   0.874938496326880   1.0000000
N2   N   0.388906542664001   0.777788884730324   0.875033458181617   1.0000000
N2   N   0.222237303341181   0.277775805215909   0.875157302885432   1.0000000
N2   N   0.722204010297911   0.777783785873558   0.874955109185622   1.0000000
N2   N   0.555550090784869   0.277775533522159   0.875263875266041   1.0000000
N2   N   0.888877096834417   0.277770580422450   0.874992537950894   1.0000000
N2   N   0.222246204856247   0.777792424030868   0.374994741556160   1.0000000
N2   N   0.055553933030307   0.277771931217047   0.374956565789134   1.0000000
N2   N   0.388891861779649   0.277757144726225   0.375194856961409   1.0000000
N2   N   0.555555372046543   0.777785641119311   0.374970555484811   1.0000000
N2   N   0.888878205001682   0.777772684331859   0.375073242826918   1.0000000
N2   N   0.722197893474191   0.277747705204563   0.375015352994465   1.0000000
N2   N   0.055547334979369   0.944435950064439   0.875029572764542   1.0000000
N2   N   0.388906631603132   0.944452451403767   0.875067094276337   1.0000000
N2   N   0.222235093777413   0.444447347484645   0.875064494708467   1.0000000
N2   N   0.555579851234959   0.444455917558914   0.874840654272674   1.0000000
N2   N   0.722210704340369   0.944441584629820   0.875012056171498   1.0000000
N2   N   0.888878541707594   0.444439835745552   0.874929028924652   1.0000000
N2   N   0.055553281589407   0.444447503918142   0.374995483201560   1.0000000
N2   N   0.222231279029325   0.944445123914692   0.374937512690588   1.0000000
N2   N   0.555554694759942   0.944442660628704   0.374974511121597   1.0000000
N2   N   0.388908527449696   0.444459429606934   0.375132698647893   1.0000000
N2   N   0.888876520807681   0.944434551764705   0.375004599753076   1.0000000
N2   N   0.722182240156857   0.444380194319345   0.375671501772250   1.0000000
N2   N   0.222234725393249   0.611120753986202   0.875015651985857   1.0000000
N2   N   0.055549472741194   0.111099681724193   0.875064156288713   1.0000000
N2   N   0.555565302968034   0.611113701434789   0.875151245309467   1.0000000
N2   N   0.388897625287582   0.111116063209278   0.875235400632792   1.0000000
N2   N   0.888919641615301   0.611126135173309   0.874475223422819   1.0000000
N2   N   0.055564246545512   0.611120487156044   0.375060593293830   1.0000000
N2   N   0.722208566230976   0.111094729807674   0.875019233473136   1.0000000
N2   N   0.222229028831121   0.111108787558790   0.374810741205042   1.0000000
N2   N   0.388905084595912   0.611117438854565   0.374934125900023   1.0000000
N2   N   0.722185320899332   0.611136925779734   0.375655941502443   1.0000000
N2   N   0.555550290623373   0.111094358393780   0.374924677803890   1.0000000
N2   N   0.388905084595912   0.611117438854565   0.875065874099977   1.0000000
N2   N   0.888878442781873   0.111099836849190   0.374987377191259   1.0000000
N2   N   0.222246204856247   0.777792424030868   0.875005258443839   1.0000000
N2   N   0.055553933030307   0.277771931217047   0.875043434210867   1.0000000
N2   N   0.388891861779649   0.277757144726225   0.874805143038591   1.0000000
N2   N   0.555555372046543   0.777785641119311   0.875029444515189   1.0000000
N2   N   0.888878205001682   0.777772684331859   0.874926757173083   1.0000000
N2   N   0.722197893474191   0.277747705204563   0.874984647005535   1.0000000
N2   N   0.055564203133149   0.777779568014242   0.375061503673120   1.0000000
N2   N   0.388906542664001   0.777788884730324   0.374966541818383   1.0000000
N2   N   0.222237303341181   0.277775805215909   0.374842697114568   1.0000000
N2   N   0.722204010297911   0.777783785873558   0.375044890814378   1.0000000
N2   N   0.555550090784869   0.277775533522159   0.374736124733959   1.0000000
N2   N   0.888877096834417   0.277770580422450   0.375007462049105   1.0000000
N2   N   0.055553281589407   0.444447503918142   0.875004516798440   1.0000000
N2   N   0.222231279029325   0.944445123914692   0.875062487309411   1.0000000
N2   N   0.555554694759942   0.944442660628704   0.875025488878403   1.0000000
N2   N   0.388908527449696   0.444459429606934   0.874867301352107   1.0000000
N2   N   0.888876520807681   0.944434551764705   0.874995400246924   1.0000000
N2   N   0.055547334979369   0.944435950064439   0.374970427235458   1.0000000
N2   N   0.722182240156857   0.444380194319345   0.874328498227750   1.0000000
N2   N   0.388906631603132   0.944452451403767   0.374932905723663   1.0000000
N2   N   0.222235093777413   0.444447347484645   0.374935505291533   1.0000000
N2   N   0.222234725393249   0.611120753986202   0.374984348014143   1.0000000
N2   N   0.555579851234959   0.444455917558914   0.375159345727326   1.0000000
N2   N   0.722210704340369   0.944441584629820   0.374987943828502   1.0000000
N2   N   0.888878541707594   0.444439835745552   0.375070971075348   1.0000000
N2   N   0.055564246545512   0.611120487156044   0.874939406706170   1.0000000
N2   N   0.222229028831121   0.111108787558790   0.875189258794958   1.0000000
N2   N   0.722185320899332   0.611136925779734   0.874344058497557   1.0000000
N2   N   0.555550290623373   0.111094358393780   0.875075322196109   1.0000000
N2   N   0.888878442781873   0.111099836849190   0.875012622808741   1.0000000
B2   B   0.110991331991950   0.055438356734799   0.375038374900826   1.0000000
B2   B   0.611340205302103   0.555661355247555   0.375288225266914   1.0000000
B2   B   0.444493400659955   0.055509085305832   0.375055318394844   1.0000000
B2   B   0.944332089438105   0.555608435917821   0.374907529384037   1.0000000
B2   B   0.777759642145842   0.055529176508340   0.375002362391798   1.0000000
B2   B   0.111020930853845   0.722165613444981   0.875033396148960   1.0000000
B2   B   0.444481491907796   0.722249752031704   0.874990715144962   1.0000000
B2   B   0.277798883194211   0.222239095225151   0.874665423045807   1.0000000
B2   B   0.777763071591213   0.722104667511285   0.875025353662699   1.0000000
B2   B   0.611220353460497   0.222261931162102   0.874972195564874   1.0000000
B2   B   0.944383324866966   0.222222316499010   0.874991668573768   1.0000000
B2   B   0.277758244831186   0.722217349130065   0.375001565492967   1.0000000
B2   B   0.111040325635416   0.222199256881181   0.375029785060836   1.0000000
B2   B   0.444509386424987   0.222272483986425   0.375364321914428   1.0000000
B2   B   0.611188731390140   0.722255724703219   0.374977416511743   1.0000000
B2   B   0.944312210962986   0.722052049484838   0.374911544828641   1.0000000
B2   B   0.777781945342031   0.222254027094210   0.374993568178142   1.0000000
B2   B   0.110993116915918   0.888745389903940   0.874993439786513   1.0000000
B2   B   0.444470909505172   0.888866899410866   0.874981773151175   1.0000000
B2   B   0.277822714204722   0.388965807466546   0.874875634046841   1.0000000
B2   B   0.611360159486784   0.389093820849381   0.874634504845216   1.0000000
B2   B   0.777751098614447   0.888821550672278   0.875020525704038   1.0000000
B2   B   0.944373736060086   0.388958886581409   0.875056224381518   1.0000000
B2   B   0.111056969614365   0.388924435708206   0.375015165461794   1.0000000
B2   B   0.277745445629236   0.888815894886952   0.375029756562504   1.0000000
B2   B   0.611136164391612   0.888879784596521   0.375003486713236   1.0000000
B2   B   0.444587176123560   0.389002838031853   0.375122150428801   1.0000000
B2   B   0.944327526288335   0.888721429830769   0.374948798238125   1.0000000
B2   B   0.777794549289915   0.389021096756885   0.375006192017481   1.0000000
B2   B   0.277776190622132   0.555601735790558   0.874979894516520   1.0000000
B2   B   0.110991331991950   0.055438356734799   0.874961625099174   1.0000000
B2   B   0.611340205302103   0.555661355247555   0.874711774733086   1.0000000
B2   B   0.444493400659955   0.055509085305832   0.874944681605156   1.0000000
B2   B   0.944332089438105   0.555608435917821   0.875092470615963   1.0000000
B2   B   0.111039099523819   0.555587741328702   0.374971474895495   1.0000000
B2   B   0.777759642145842   0.055529176508340   0.874997637608203   1.0000000
B2   B   0.277724466951844   0.055458195133178   0.375106311263782   1.0000000
B2   B   0.444522450292983   0.555616350008931   0.375075197342703   1.0000000
B2   B   0.777833620562207   0.555604286884892   0.374166069296902   1.0000000
B2   B   0.611152617768396   0.055538681015851   0.375021336738157   1.0000000
B2   B   0.444522450292983   0.555616350008931   0.874924802657297   1.0000000
B2   B   0.944355646644801   0.055470791243753   0.375012426194784   1.0000000
B2   B   0.277758244831186   0.722217349130065   0.874998434507033   1.0000000
B2   B   0.111040325635416   0.222199256881181   0.874970214939164   1.0000000
B2   B   0.444509386424987   0.222272483986425   0.874635678085572   1.0000000
B2   B   0.611188731390140   0.722255724703219   0.875022583488257   1.0000000
B2   B   0.944312210962986   0.722052049484838   0.875088455171359   1.0000000
B2   B   0.777781945342031   0.222254027094210   0.875006431821858   1.0000000
B2   B   0.111020930853845   0.722165613444981   0.374966603851040   1.0000000
B2   B   0.444481491907796   0.722249752031704   0.375009284855038   1.0000000
B2   B   0.277798883194211   0.222239095225151   0.375334576954193   1.0000000
B2   B   0.777763071591213   0.722104667511285   0.374974646337301   1.0000000
B2   B   0.611220353460497   0.222261931162102   0.375027804435126   1.0000000
B2   B   0.944383324866966   0.222222316499010   0.375008331426232   1.0000000
B2   B   0.111056969614365   0.388924435708206   0.874984834538206   1.0000000
B2   B   0.277745445629236   0.888815894886952   0.874970243437496   1.0000000
B2   B   0.611136164391612   0.888879784596521   0.874996513286764   1.0000000
B2   B   0.444587176123560   0.389002838031853   0.874877849571198   1.0000000
B2   B   0.944327526288335   0.888721429830769   0.875051201761875   1.0000000
B2   B   0.110993116915918   0.888745389903940   0.375006560213487   1.0000000
B2   B   0.777794549289915   0.389021096756885   0.874993807982519   1.0000000
B2   B   0.444470909505172   0.888866899410866   0.375018226848825   1.0000000
B2   B   0.277822714204722   0.388965807466546   0.375124365953159   1.0000000
B2   B   0.277776190622132   0.555601735790558   0.375020105483481   1.0000000
B2   B   0.611360159486784   0.389093820849381   0.375365495154784   1.0000000
B2   B   0.777751098614447   0.888821550672278   0.374979474295963   1.0000000
B2   B   0.944373736060086   0.388958886581409   0.374943775618483   1.0000000
B2   B   0.111039099523819   0.555587741328702   0.875028525104505   1.0000000
B2   B   0.277724466951844   0.055458195133178   0.874893688736219   1.0000000
B2   B   0.777833620562207   0.555604286884892   0.875833930703098   1.0000000
B2   B   0.611152617768396   0.055538681015851   0.874978663261843   1.0000000
B2   B   0.944355646644801   0.055470791243753   0.874987573805216   1.0000000
B2   B   0.056303747071462   0.111607870119455   0.125000000000000   1.0000000
B2   B   0.552816188752755   0.608371657793484   0.125000000000000   1.0000000
B2   B   0.387409013952391   0.110077216606991   0.125000000000000   1.0000000
B2   B   0.891327768670117   0.612355732762187   0.125000000000000   1.0000000
B2   B   0.722158996664397   0.111006471136025   0.125000000000000   1.0000000
B2   B   0.055508153520305   0.777734099514940   0.625000000000000   1.0000000
B2   B   0.388875421358193   0.777761365737544   0.625000000000000   1.0000000
B2   B   0.222211572529988   0.277786639592834   0.625000000000000   1.0000000
B2   B   0.722247442250918   0.777757848671555   0.625000000000000   1.0000000
B2   B   0.555603177629926   0.277823383637253   0.625000000000000   1.0000000
B2   B   0.888899361974608   0.277805428505904   0.625000000000000   1.0000000
B2   B   0.222305049313146   0.777805973139828   0.125000000000000   1.0000000
B2   B   0.056257207149290   0.277827250142204   0.125000000000000   1.0000000
B2   B   0.555386264157289   0.776940681572168   0.125000000000000   1.0000000
B2   B   0.888447001746302   0.777202180797771   0.125000000000000   1.0000000
B2   B   0.721924207465172   0.277444468252638   0.125000000000000   1.0000000
B2   B   0.055526057404579   0.944408356477503   0.625000000000000   1.0000000
B2   B   0.388876753401465   0.944425670318118   0.625000000000000   1.0000000
B2   B   0.222209098439223   0.444450197119849   0.625000000000000   1.0000000
B2   B   0.555595637186560   0.444473200626814   0.625000000000000   1.0000000
B2   B   0.722237218298520   0.944438300152081   0.625000000000000   1.0000000
B2   B   0.888893277060822   0.444471892947488   0.625000000000000   1.0000000
B2   B   0.055218030857113   0.444327518624766   0.125000000000000   1.0000000
B2   B   0.222115698506998   0.944041670033754   0.125000000000000   1.0000000
B2   B   0.555578590685861   0.944531114010667   0.125000000000000   1.0000000
B2   B   0.387546489261196   0.444979561776242   0.125000000000000   1.0000000
B2   B   0.889077661299998   0.944546580074925   0.125000000000000   1.0000000
B2   B   0.722519684405897   0.444180173023353   0.125000000000000   1.0000000
B2   B   0.222192358789325   0.611098879987055   0.625000000000000   1.0000000
B2   B   0.055540098641021   0.111100472208936   0.625000000000000   1.0000000
B2   B   0.555586626894535   0.611109250445772   0.625000000000000   1.0000000
B2   B   0.388892708102230   0.111110327899310   0.625000000000000   1.0000000
B2   B   0.888869557051046   0.611096944323407   0.625000000000000   1.0000000
B2   B   0.056315787367583   0.611056490610686   0.125000000000000   1.0000000
B2   B   0.722243970907597   0.111129745004218   0.625000000000000   1.0000000
B2   B   0.223671683197467   0.111517459871611   0.125000000000000   1.0000000
B2   B   0.388166072724695   0.611640357867183   0.125000000000000   1.0000000
B2   B   0.721172587937826   0.610345090560396   0.125000000000000   1.0000000
B2   B   0.555345644312108   0.111782744598297   0.125000000000000   1.0000000
B2   B   0.388888843778981   0.611105625811409   0.625000000000000   1.0000000
B2   B   0.889176502769207   0.111196537142624   0.125000000000000   1.0000000
B2   B   0.222179868651127   0.777743709879047   0.625000000000000   1.0000000
B2   B   0.055543890599919   0.277787303100076   0.625000000000000   1.0000000
B2   B   0.388905165123436   0.277803235741997   0.625000000000000   1.0000000
B2   B   0.555569393916772   0.777767726264218   0.625000000000000   1.0000000
B2   B   0.888880385605650   0.777744358741813   0.625000000000000   1.0000000
B2   B   0.722265333834806   0.277829730921153   0.625000000000000   1.0000000
B2   B   0.056301617116875   0.778615490561877   0.125000000000000   1.0000000
B2   B   0.388905749834841   0.778176030079407   0.125000000000000   1.0000000
B2   B   0.224220545975654   0.279384807522596   0.125000000000000   1.0000000
B2   B   0.722031582334143   0.777798040973721   0.125000000000000   1.0000000
B2   B   0.553561851624147   0.278326661468494   0.125000000000000   1.0000000
B2   B   0.888936348606669   0.277715600309253   0.125000000000000   1.0000000
B2   B   0.055537195623008   0.444454306579005   0.625000000000000   1.0000000
B2   B   0.222187577894963   0.944407556742500   0.625000000000000   1.0000000
B2   B   0.555564617317649   0.944441474572658   0.625000000000000   1.0000000
B2   B   0.388903525801837   0.444455873483029   0.625000000000000   1.0000000
B2   B   0.888887683138658   0.944423633236770   0.625000000000000   1.0000000
B2   B   0.056040360839107   0.945004814067003   0.125000000000000   1.0000000
B2   B   0.722275681206963   0.444500880951208   0.625000000000000   1.0000000
B2   B   0.388846232486930   0.944745186228298   0.125000000000000   1.0000000
B2   B   0.221492222265482   0.444756088568596   0.125000000000000   1.0000000
B2   B   0.222239776672312   0.611298075202818   0.125000000000000   1.0000000
B2   B   0.722222514970501   0.944497213737078   0.125000000000000   1.0000000
B2   B   0.888578199030568   0.444582968463457   0.125000000000000   1.0000000
B2   B   0.055513277973853   0.611092209387435   0.625000000000000   1.0000000
B2   B   0.222203290497303   0.111098289002771   0.625000000000000   1.0000000
B2   B   0.722263889200531   0.611105764414146   0.625000000000000   1.0000000
B2   B   0.555580478666331   0.111128315321140   0.625000000000000   1.0000000
B2   B   0.888894070171183   0.111115269855441   0.625000000000000   1.0000000
C2   C   0.445844320861561   0.385878325211877   0.125000000000000   1.0000000
C2   C   0.777919744824788   0.555539362587498   0.125000000000000   1.0000000
C2   C   0.390379807598034   0.277991098474687   0.125000000000000   1.0000000
C2   C   0.555667650892267   0.442742331965673   0.125000000000000   1.0000000


