data_1
_audit_creation_method   'vasp2cif'
_cell_length_a    17.52789999999977
_cell_length_b    17.52789999999977
_cell_length_c    15.0
_cell_angle_alpha    90.0
_cell_angle_beta    90.0
_cell_angle_gamma    119.99999999999916

_symmetry_space_group_name_H-M    'P 1'
loop_
_atom_site_label
_atom_site_type_symbol
_atom_site_fract_x
_atom_site_fract_y
_atom_site_fract_z
_atom_site_occupancy
B2   B   0.905337204685895   0.952930471419085   0.111001749052410   1.0000000
B2   B   0.904505477869209   0.095496223460791   0.111060885758407   1.0000000
B2   B   0.904226594255177   0.238387523620261   0.111075548932668   1.0000000
B2   B   0.904170664956800   0.381204611577415   0.110982792019747   1.0000000
B2   B   0.904653924027526   0.524007322764850   0.111011083364357   1.0000000
B2   B   0.906131288571888   0.667193183089461   0.111127750890887   1.0000000
B2   B   0.906500525194684   0.810635241595512   0.111077945054884   1.0000000
B2   B   0.047951913337764   0.952049853039232   0.111069820946779   1.0000000
B2   B   0.047071154313921   0.094664438064105   0.111001747451415   1.0000000
B2   B   0.046944033834128   0.237806454533259   0.110978237108575   1.0000000
B2   B   0.047268544440010   0.380738279239575   0.110974738166694   1.0000000
B2   B   0.047939769362514   0.523486030750094   0.110984298220725   1.0000000
B2   B   0.048477632697245   0.666353744957009   0.111096090455944   1.0000000
B2   B   0.048580833991772   0.809354165992945   0.111158640378103   1.0000000
B2   B   0.190647581361053   0.951420899324232   0.111158641372102   1.0000000
B2   B   0.189366563469485   0.093501263579316   0.111077943035884   1.0000000
B2   B   0.188914069162072   0.236397599815969   0.110944156287194   1.0000000
B2   B   0.189922337540708   0.380115072742593   0.110917701651335   1.0000000
B2   B   0.191364513551882   0.523034577950056   0.110971602723359   1.0000000
B2   B   0.191340693042560   0.665882634814353   0.111047806538853   1.0000000
B2   B   0.191208364362491   0.808793304933514   0.111098155820074   1.0000000
B2   B   0.333647931470990   0.951524037813752   0.111096093172939   1.0000000
B2   B   0.332808681567533   0.093870512417109   0.111127762628889   1.0000000
B2   B   0.330400111001999   0.234410602818409   0.111018489733580   1.0000000
B2   B   0.331202798729560   0.377840832845711   0.110949937110998   1.0000000
B2   B   0.335793827699446   0.523084737005224   0.111003225178289   1.0000000
B2   B   0.334426832559597   0.665575083518402   0.111026794945923   1.0000000
B2   B   0.334119127995648   0.808661097902439   0.111047804495858   1.0000000
B2   B   0.476515609323902   0.952061818516484   0.110984314091720   1.0000000
B2   B   0.475994475792151   0.095347724004471   0.111011110557361   1.0000000
B2   B   0.474901301403353   0.238321933458486   0.111046057914324   1.0000000
B2   B   0.469183456106767   0.378153413709617   0.111079963420757   1.0000000
B2   B   0.476917309189777   0.664206360462552   0.111003243630295   1.0000000
B2   B   0.476967279492940   0.808637059876119   0.110971608332355   1.0000000
B2   B   0.619263476864430   0.952733204115993   0.110974748896699   1.0000000
B2   B   0.618797122473589   0.095830901065200   0.110982802769747   1.0000000
B2   B   0.618188726229296   0.239147300829033   0.111042637949063   1.0000000
B2   B   0.617284853618410   0.382717189144591   0.111040337941242   1.0000000
B2   B   0.621849887266380   0.530818476982228   0.111079976077755   1.0000000
B2   B   0.622160578931288   0.668798136205442   0.110949951574003   1.0000000
B2   B   0.619886448333408   0.810079073085297   0.110917705131339   1.0000000
B2   B   0.762195179198739   0.953057572025872   0.110978240074572   1.0000000
B2   B   0.761614288184738   0.095775139543819   0.111075553841666   1.0000000
B2   B   0.761222514588234   0.238779049034768   0.111080509148124   1.0000000
B2   B   0.760854389006972   0.381812877500703   0.111042627731061   1.0000000
B2   B   0.761680487560519   0.525100601394651   0.111046048284324   1.0000000
B2   B   0.765591513899592   0.669601797092000   0.111018485144582   1.0000000
B2   B   0.763603885836031   0.811087403384926   0.110944159377195   1.0000000
C2   C   0.519557080336246   0.480447211701754   0.111112523041287   1.0000000
N2   N   0.953162034505112   0.905346257076681   0.111018518011727   1.0000000
N2   N   0.952180971533196   0.047820683142802   0.111008534550359   1.0000000
N2   N   0.951779462285946   0.190618791466021   0.111043028220301   1.0000000
N2   N   0.951820570752169   0.333564171206425   0.110990716811449   1.0000000
N2   N   0.952278068480947   0.476319696799809   0.110946708238533   1.0000000
N2   N   0.953115774947326   0.619114981380987   0.111068398323705   1.0000000
N2   N   0.953496797194699   0.762255984145246   0.111136196670369   1.0000000
N2   N   0.095650243349951   0.904351511417054   0.111130899872977   1.0000000
N2   N   0.094655517582316   0.046839764029890   0.111018521067728   1.0000000
N2   N   0.094088739603891   0.189613434326240   0.110946001584785   1.0000000
N2   N   0.094565049514209   0.332898877310403   0.110935533777460   1.0000000
N2   N   0.095620399975207   0.475861663190539   0.110950677856970   1.0000000
N2   N   0.095930269012575   0.618618473066431   0.111028163595299   1.0000000
N2   N   0.096007029352710   0.761478819201159   0.111114419548961   1.0000000
N2   N   0.238522867368843   0.903994642354294   0.111114415995956   1.0000000
N2   N   0.237745858545753   0.046505020215296   0.111136196025367   1.0000000
N2   N   0.235990045658395   0.188087098236098   0.110993337712232   1.0000000
N2   N   0.235992733287246   0.331206462572278   0.110897402403694   1.0000000
N2   N   0.238891361954575   0.475165644812343   0.110930148623946   1.0000000
N2   N   0.238983158791762   0.618265985958802   0.111003087394915   1.0000000
N2   N   0.238849987689496   0.761151760844501   0.111055953207069   1.0000000
N2   N   0.381383200004566   0.904071506985426   0.111028171829296   1.0000000
N2   N   0.380886817535016   0.046885899184668   0.111068405552703   1.0000000
N2   N   0.379857859243720   0.189044864537921   0.111063302108379   1.0000000
N2   N   0.376611703832540   0.328535150817495   0.110976580173391   1.0000000
N2   N   0.376689357350910   0.470318621307172   0.110946953639354   1.0000000
N2   N   0.382047612936009   0.617954078896990   0.111016477613669   1.0000000
N2   N   0.381735864766197   0.761018693506244   0.111003082082912   1.0000000
N2   N   0.524140101969461   0.904381485375797   0.110950692584971   1.0000000
N2   N   0.523682064105184   0.047723302248055   0.110946743686537   1.0000000
N2   N   0.523024581159655   0.191095816111356   0.111016024956660   1.0000000
N2   N   0.521524268165362   0.334619248807715   0.111037352601626   1.0000000
N2   N   0.529682433785823   0.623308431571091   0.110947025978352   1.0000000
N2   N   0.524835843498657   0.761109549100421   0.110930149789939   1.0000000
N2   N   0.667102709885600   0.905436521515795   0.110935537152467   1.0000000
N2   N   0.666437661772571   0.048181124222829   0.110990727377454   1.0000000
N2   N   0.665918686194408   0.191383383692251   0.111019575883140   1.0000000
N2   N   0.665126092484657   0.334875574791345   0.111030277297553   1.0000000
N2   N   0.665383747160288   0.478477559911635   0.111037377526626   1.0000000
N2   N   0.671467366230508   0.623390176049459   0.110976580709389   1.0000000
N2   N   0.668794906655724   0.764008523884756   0.110897409013695   1.0000000
N2   N   0.810388169062762   0.905912812924107   0.110946004545787   1.0000000
N2   N   0.809382939419977   0.048222217465055   0.111043025255306   1.0000000
N2   N   0.808912667967420   0.191089075790578   0.111099265790183   1.0000000
N2   N   0.808618235262745   0.334082844809595   0.111019583699139   1.0000000
N2   N   0.808906053744644   0.476977000374353   0.111015989230664   1.0000000
N2   N   0.810957119240078   0.620144021424282   0.111063282680379   1.0000000
N2   N   0.811914790398900   0.764011804704604   0.110993340643228   1.0000000


