data_1
_audit_creation_method   'vasp2cif'
_cell_length_a    17.52789999999977
_cell_length_b    17.52789999999977
_cell_length_c    15.0
_cell_angle_alpha    90.0
_cell_angle_beta    90.0
_cell_angle_gamma    119.99999999999916

_symmetry_space_group_name_H-M    'P 1'
loop_
_atom_site_label
_atom_site_type_symbol
_atom_site_fract_x
_atom_site_fract_y
_atom_site_fract_z
_atom_site_occupancy
B2   B   0.909637055590770   0.954308167711086   0.110709366072471   1.0000000
B2   B   0.909215699307761   0.096048216079503   0.110764283451929   1.0000000
B2   B   0.909017475091905   0.237954181905919   0.110726810767601   1.0000000
B2   B   0.909037350681974   0.380348247293833   0.110694086763539   1.0000000
B2   B   0.908653746459441   0.523138731960986   0.110740655606564   1.0000000
B2   B   0.908186064939713   0.665899176798850   0.110752963996096   1.0000000
B2   B   0.904920934019601   0.807566533431252   0.110715978770056   1.0000000
B2   B   0.050559133077894   0.953601840669857   0.110687521961309   1.0000000
B2   B   0.052828473613972   0.097341812397950   0.110763624018872   1.0000000
B2   B   0.052144106080442   0.238886626831502   0.110814381519966   1.0000000
B2   B   0.050845269766781   0.381320634193573   0.110731492039919   1.0000000
B2   B   0.049374510593923   0.524581507607983   0.110714897163965   1.0000000
B2   B   0.049428753816042   0.667809955492574   0.110734409018845   1.0000000
B2   B   0.049262451497468   0.810592999544483   0.110732313707899   1.0000000
B2   B   0.193052649733971   0.954628928061628   0.110709766941830   1.0000000
B2   B   0.196129541414962   0.099065544300517   0.110712981108829   1.0000000
B2   B   0.196521390535263   0.240848408216092   0.110786383383916   1.0000000
B2   B   0.193488397190364   0.382073631833647   0.110752704305373   1.0000000
B2   B   0.189334098949616   0.525535969497452   0.110704302054548   1.0000000
B2   B   0.189830231356943   0.669045782091953   0.110761666922464   1.0000000
B2   B   0.191634467911061   0.811764996421755   0.110741674056764   1.0000000
B2   B   0.335219294516634   0.954630325524243   0.110730313121044   1.0000000
B2   B   0.337069316987024   0.097821657131929   0.110757451517923   1.0000000
B2   B   0.343347724239137   0.245568560973952   0.110760612735358   1.0000000
B2   B   0.339651698234611   0.383165571266653   0.110767735672770   1.0000000
B2   B   0.327853631972426   0.528288760492399   0.110664888960622   1.0000000
B2   B   0.329082588249055   0.670867572153754   0.110695241420880   1.0000000
B2   B   0.333722063043952   0.812606545328554   0.110797153043615   1.0000000
B2   B   0.477818308163498   0.953593169197040   0.110740274174032   1.0000000
B2   B   0.479030705594621   0.095274873648161   0.110761046232273   1.0000000
B2   B   0.480893057081542   0.237523059949459   0.110757284138756   1.0000000
B2   B   0.498196377208107   0.391937516527314   0.110790300503490   1.0000000
B2   B   0.466345845933114   0.669365955543488   0.110690454594832   1.0000000
B2   B   0.476413954517966   0.811882801332821   0.110744189447357   1.0000000
B2   B   0.621255471266831   0.954631397662716   0.110757161862525   1.0000000
B2   B   0.622020237777096   0.094750539667071   0.110732826443929   1.0000000
B2   B   0.623051509198077   0.234813557820210   0.110721809484506   1.0000000
B2   B   0.625774636085528   0.373991596241163   0.110779305669282   1.0000000
B2   B   0.614511993559654   0.500271620664886   0.110806091768883   1.0000000
B2   B   0.621215694050055   0.815062476804625   0.110698597311108   1.0000000
B2   B   0.765638294580758   0.953949872404396   0.110744202716402   1.0000000
B2   B   0.765644652072066   0.095389505538887   0.110727207258190   1.0000000
B2   B   0.766162489533414   0.236803616312601   0.110702737246688   1.0000000
B2   B   0.767409480175493   0.378458660476434   0.110707825549884   1.0000000
B2   B   0.766958003397770   0.519763404998762   0.110746483459431   1.0000000
B2   B   0.762779447674627   0.657674334539178   0.110740612370748   1.0000000
B2   B   0.767174685276585   0.812963688798737   0.110726028959943   1.0000000
Ga2   Ga   0.618249731752261   0.660222986080705   0.110880743401269   1.0000000
N2   N   0.954508872094526   0.904248329916853   0.110675935690778   1.0000000
N2   N   0.957592672065620   0.049405380022204   0.110739261751659   1.0000000
N2   N   0.957195300251644   0.191134374087551   0.110761954122748   1.0000000
N2   N   0.956553787634016   0.333048760027242   0.110700426620352   1.0000000
N2   N   0.955510698409715   0.475572141982309   0.110698219293045   1.0000000
N2   N   0.955176975160474   0.618568147121546   0.110734578998453   1.0000000
N2   N   0.953763626329469   0.761342354001885   0.110723006449843   1.0000000
N2   N   0.097736828315293   0.906104344845155   0.110689230602969   1.0000000
N2   N   0.100169348207493   0.049980160140990   0.110693833678487   1.0000000
N2   N   0.101295167911760   0.192948933563675   0.110789056005056   1.0000000
N2   N   0.099426258485663   0.334277916922375   0.110768188220070   1.0000000
N2   N   0.096218907970108   0.476581040542527   0.110697106609625   1.0000000
N2   N   0.096027500446406   0.619899505679757   0.110720760731589   1.0000000
N2   N   0.096700313296031   0.763121828076820   0.110715626584846   1.0000000
N2   N   0.240119836268882   0.906878786781808   0.110703078719354   1.0000000
N2   N   0.242023542584103   0.050333754734436   0.110701529607778   1.0000000
N2   N   0.246468263766364   0.196158834628275   0.110732520079000   1.0000000
N2   N   0.244923153924065   0.337137285386504   0.110758605740838   1.0000000
N2   N   0.236490354968555   0.477422184289312   0.110679462001545   1.0000000
N2   N   0.236016794144923   0.620756833303764   0.110709521669795   1.0000000
N2   N   0.238811523400962   0.764040481368374   0.110764764183666   1.0000000
N2   N   0.382579971746134   0.906982648509644   0.110738088953177   1.0000000
N2   N   0.383848451607583   0.049552171580809   0.110741669109775   1.0000000
N2   N   0.386274404060351   0.193696345536722   0.110739825972187   1.0000000
N2   N   0.396381113520137   0.345356048373478   0.110754081332740   1.0000000
N2   N   0.377601811772444   0.481421436712815   0.110726571008312   1.0000000
N2   N   0.374214561477319   0.621873632781316   0.110625792759998   1.0000000
N2   N   0.380930155057547   0.764789751467610   0.110753119857895   1.0000000
N2   N   0.525463551866547   0.906098929820942   0.110739213610381   1.0000000
N2   N   0.526592263017340   0.047948966980879   0.110730085992019   1.0000000
N2   N   0.527809140061726   0.189678066505017   0.110731300437602   1.0000000
N2   N   0.530828917006683   0.331907834480435   0.110760037793773   1.0000000
N2   N   0.461604559399383   0.525678793510059   0.110857108517248   1.0000000
N2   N   0.500003094876203   0.609390330611512   0.110820336364321   1.0000000
N2   N   0.523361900443475   0.762790176995790   0.110681973904293   1.0000000
N2   N   0.669298354710774   0.908456563507525   0.110724527333530   1.0000000
N2   N   0.670082602645773   0.048441407683167   0.110719306592907   1.0000000
N2   N   0.670882804288669   0.188768270020265   0.110706096713862   1.0000000
N2   N   0.672670423932226   0.328585985329125   0.110710821522518   1.0000000
N2   N   0.672671392761661   0.466998841404248   0.110771259466393   1.0000000
N2   N   0.667531880785258   0.595817824414212   0.110716591784445   1.0000000
N2   N   0.673863577658372   0.775278185263665   0.110678633792973   1.0000000
N2   N   0.814791941416334   0.907468325737948   0.110717552438443   1.0000000
N2   N   0.813752944812357   0.048526837738710   0.110731973744914   1.0000000
N2   N   0.813979481537370   0.190046910723389   0.110697881814041   1.0000000
N2   N   0.814534226857256   0.331624342494330   0.110675399115153   1.0000000
N2   N   0.814467987063555   0.473464148446759   0.110711935774758   1.0000000
N2   N   0.813667757092566   0.615240788145357   0.110730672934743   1.0000000
N2   N   0.807639291028126   0.756921537488373   0.110718761505606   1.0000000


