data_1
_audit_creation_method   'vasp2cif'
_cell_length_a    17.52789999999977
_cell_length_b    17.52789999999977
_cell_length_c    15.0
_cell_angle_alpha    90.0
_cell_angle_beta    90.0
_cell_angle_gamma    119.99999999999916

_symmetry_space_group_name_H-M    'P 1'
loop_
_atom_site_label
_atom_site_type_symbol
_atom_site_fract_x
_atom_site_fract_y
_atom_site_fract_z
_atom_site_occupancy
C2   C   0.390244412818532   0.482877136540408   0.111175331334927   1.0000000
B2   B   0.906674477965666   0.951981565417954   0.110730742665157   1.0000000
B2   B   0.907958005996730   0.095434042956437   0.110769372132082   1.0000000
B2   B   0.908367281324990   0.238313248880700   0.110804935071099   1.0000000
B2   B   0.908176133880176   0.381074327994063   0.110716327996280   1.0000000
B2   B   0.906852443472026   0.523738225368237   0.110744155935336   1.0000000
B2   B   0.905446609162005   0.666110287565962   0.110826639251439   1.0000000
B2   B   0.904825175772338   0.808097822568170   0.110724112430321   1.0000000
B2   B   0.049729667386388   0.952909910657230   0.110687876128749   1.0000000
B2   B   0.051086417500400   0.096285000013833   0.110740122800847   1.0000000
B2   B   0.051689758206019   0.239172710607101   0.110910183825437   1.0000000
B2   B   0.051272243440651   0.381661916891371   0.110838655816834   1.0000000
B2   B   0.049938037522232   0.524376826316809   0.110671280252986   1.0000000
B2   B   0.049049016702559   0.667096908051865   0.110697331985758   1.0000000
B2   B   0.048935719862619   0.809816802347198   0.110731746538538   1.0000000
B2   B   0.192704954028003   0.953434073349856   0.110724653649415   1.0000000
B2   B   0.194593229034196   0.097523560650384   0.110653015302945   1.0000000
B2   B   0.195513058336598   0.240679473506954   0.110779604033537   1.0000000
B2   B   0.195264419172330   0.382813242990121   0.110969142520757   1.0000000
B2   B   0.192850701405862   0.524996231529783   0.110787828142980   1.0000000
B2   B   0.191992912740908   0.667758199373696   0.110637656838498   1.0000000
B2   B   0.192119837347740   0.810468362402716   0.110659800413614   1.0000000
B2   B   0.335547693830658   0.953396504178309   0.110770449291289   1.0000000
B2   B   0.336437850022409   0.096326147594123   0.110699998141950   1.0000000
B2   B   0.340004123965217   0.241644626523162   0.110580692100461   1.0000000
B2   B   0.340389751096207   0.384052931823684   0.110940137726056   1.0000000
B2   B   0.336067612230159   0.528031117447123   0.111005196675188   1.0000000
B2   B   0.334615697584463   0.669241207184839   0.110772474234919   1.0000000
B2   B   0.335108987995754   0.811094650317363   0.110721896698723   1.0000000
B2   B   0.478582373892714   0.952971916224709   0.110793114524837   1.0000000
B2   B   0.479087167910668   0.095379299174300   0.110795521445850   1.0000000
B2   B   0.479900966301926   0.237922662585780   0.110576190784463   1.0000000
B2   B   0.486054620628203   0.384166706570935   0.110563165789135   1.0000000
B2   B   0.476270532639055   0.668219923059482   0.110783995947098   1.0000000
B2   B   0.478088783959995   0.810606370546998   0.110773648169252   1.0000000
B2   B   0.621582590111972   0.952334145270976   0.110725430673456   1.0000000
B2   B   0.622067245851275   0.094940766429873   0.110744807733921   1.0000000
B2   B   0.622504009640759   0.237237382669804   0.110675863571766   1.0000000
B2   B   0.623353730923975   0.379158094706993   0.110531196322402   1.0000000
B2   B   0.614694604448711   0.515490005713573   0.110684892112227   1.0000000
B2   B   0.617960086305911   0.664022595229660   0.110739289865127   1.0000000
B2   B   0.620687385501806   0.809143831984051   0.110742319765384   1.0000000
B2   B   0.764213637953801   0.951929142698545   0.110716983216148   1.0000000
B2   B   0.765026269404417   0.095054664608816   0.110684555077598   1.0000000
B2   B   0.765406162377726   0.237811879784705   0.110696186248674   1.0000000
B2   B   0.765529897143247   0.380490136181218   0.110673260602717   1.0000000
B2   B   0.763330035392307   0.522730930384484   0.110730765188243   1.0000000
B2   B   0.759380061471697   0.662601171310377   0.110753392517252   1.0000000
B2   B   0.762215877141895   0.807771531295231   0.110711773812906   1.0000000
N2   N   0.953738280703396   0.903954820945878   0.110692458720112   1.0000000
N2   N   0.955303519423851   0.047614563131942   0.110737565278118   1.0000000
N2   N   0.956015942891316   0.190820425751851   0.110845349798315   1.0000000
N2   N   0.955835482450128   0.333616647250278   0.110784908108002   1.0000000
N2   N   0.954689719174967   0.476382131408946   0.110682107746160   1.0000000
N2   N   0.953548677355909   0.618994841013444   0.110769024205525   1.0000000
N2   N   0.953153047852451   0.761331024193939   0.110763768574231   1.0000000
N2   N   0.097161006445303   0.905256380532114   0.110700411050696   1.0000000
N2   N   0.098654414308884   0.048704651838142   0.110656691014933   1.0000000
N2   N   0.099544957781984   0.191752019757568   0.110805443291130   1.0000000
N2   N   0.099315352997158   0.334419246485767   0.110934822119871   1.0000000
N2   N   0.097642514547741   0.476979477788813   0.110720733826619   1.0000000
N2   N   0.096754902515237   0.619734831897246   0.110614092091826   1.0000000
N2   N   0.096646801617666   0.762440485759881   0.110670072401511   1.0000000
N2   N   0.240169255486104   0.905801493072543   0.110709265297196   1.0000000
N2   N   0.241216342440907   0.048949274075597   0.110681291028922   1.0000000
N2   N   0.243944706234135   0.193492140243818   0.110612989599047   1.0000000
N2   N   0.243764041840623   0.335670834569432   0.110906075929150   1.0000000
N2   N   0.240781830169032   0.478044241629697   0.110931398803106   1.0000000
N2   N   0.239580289956841   0.620538127836328   0.110693719010677   1.0000000
N2   N   0.239761105183185   0.763128418292888   0.110622257293522   1.0000000
N2   N   0.383241382501745   0.906096931100657   0.110760415047944   1.0000000
N2   N   0.383809010127108   0.048588381139318   0.110785072395928   1.0000000
N2   N   0.385231802985864   0.191852686209085   0.110565036498648   1.0000000
N2   N   0.391329886398731   0.338733391213866   0.110625610944564   1.0000000
N2   N   0.382262758425721   0.622764121531570   0.110818998534837   1.0000000
N2   N   0.382894534972662   0.764105146437232   0.110737745029342   1.0000000
N2   N   0.526304139501070   0.905545276523326   0.110756539487118   1.0000000
N2   N   0.526738504869323   0.047983283363059   0.110800453898359   1.0000000
N2   N   0.527364645372649   0.190471030646319   0.110678795434118   1.0000000
N2   N   0.528964229051773   0.333377491750315   0.110452639008972   1.0000000
N2   N   0.478065517899092   0.529592932711583   0.110867116862148   1.0000000
N2   N   0.523452245264532   0.619703740304482   0.110761938538427   1.0000000
N2   N   0.525771374139578   0.762951965756325   0.110748405743743   1.0000000
N2   N   0.668947305950473   0.904417987359581   0.110708561544532   1.0000000
N2   N   0.669667328270309   0.047476921561208   0.110684389083447   1.0000000
N2   N   0.670090219181991   0.190036417930606   0.110701836814431   1.0000000
N2   N   0.670556614327589   0.332321643092207   0.110577175907254   1.0000000
N2   N   0.667534903932803   0.473929647914644   0.110604960362882   1.0000000
N2   N   0.661223578574923   0.611517878596015   0.110716863069195   1.0000000
N2   N   0.666810101873468   0.759759014611635   0.110711613828780   1.0000000
N2   N   0.811021927879253   0.903488897892856   0.110705838831230   1.0000000
N2   N   0.812458305894261   0.047333172868305   0.110680180705225   1.0000000
N2   N   0.812947213848065   0.190340737529622   0.110700460522992   1.0000000
N2   N   0.812981672705678   0.333092981962456   0.110679190098978   1.0000000
N2   N   0.811517812489901   0.475672608126005   0.110712971469787   1.0000000
N2   N   0.809415961560397   0.617509241276305   0.110796855934192   1.0000000
N2   N   0.808433543729314   0.758722174745370   0.110706306117680   1.0000000


