data_1
_audit_creation_method   'vasp2cif'
_cell_length_a    17.52789999999977
_cell_length_b    17.52789999999977
_cell_length_c    15.0
_cell_angle_alpha    90.0
_cell_angle_beta    90.0
_cell_angle_gamma    119.99999999999916

_symmetry_space_group_name_H-M    'P 1'
loop_
_atom_site_label
_atom_site_type_symbol
_atom_site_fract_x
_atom_site_fract_y
_atom_site_fract_z
_atom_site_occupancy
B2   B   0.909486380324972   0.954455898042165   0.110724654301467   1.0000000
B2   B   0.909242114741018   0.096236534681681   0.110799978741842   1.0000000
B2   B   0.909113091620251   0.237994922767794   0.110754773557190   1.0000000
B2   B   0.909194022733017   0.380183316834897   0.110704085096685   1.0000000
B2   B   0.908895438246175   0.522837422392767   0.110787545812976   1.0000000
B2   B   0.908373391201510   0.665622912031112   0.110843687983983   1.0000000
B2   B   0.904305848916184   0.807225807302673   0.110739125885860   1.0000000
B2   B   0.050418360166865   0.953724336246162   0.110721662182943   1.0000000
B2   B   0.052899039449236   0.097669156291011   0.110782769946128   1.0000000
B2   B   0.052261866943869   0.239139703586594   0.110873614305861   1.0000000
B2   B   0.051055576377317   0.381282462620557   0.110755263523240   1.0000000
B2   B   0.049720533595576   0.524388343859071   0.110716468514609   1.0000000
B2   B   0.049565910529901   0.667660791700968   0.110754000036257   1.0000000
B2   B   0.049108377093852   0.810564970716916   0.110771774279069   1.0000000
B2   B   0.193047498236455   0.954864987992512   0.110738792919425   1.0000000
B2   B   0.196383074709548   0.099730401407105   0.110735358628797   1.0000000
B2   B   0.196813097457172   0.241672896729736   0.110811114762712   1.0000000
B2   B   0.193747871474562   0.382274027915515   0.110763434690042   1.0000000
B2   B   0.189972230285693   0.525267872091770   0.110715652530539   1.0000000
B2   B   0.189936220786521   0.668806857075991   0.110771796005326   1.0000000
B2   B   0.191624514288206   0.811737101131040   0.110771988964523   1.0000000
B2   B   0.335177062727392   0.954731577435627   0.110756944352959   1.0000000
B2   B   0.337151278846707   0.098261540187344   0.110778705488919   1.0000000
B2   B   0.343950431349389   0.246861033256224   0.110804118993241   1.0000000
B2   B   0.340198071209701   0.385723257764628   0.110782756886863   1.0000000
B2   B   0.329233719869632   0.526958290675049   0.110793615147528   1.0000000
B2   B   0.329099324338430   0.670126129123134   0.110874890558173   1.0000000
B2   B   0.333716695780465   0.812415995189091   0.110855948473020   1.0000000
B2   B   0.477677620547578   0.953706375328089   0.110759368710425   1.0000000
B2   B   0.478977358782862   0.095360814983721   0.110757678923556   1.0000000
B2   B   0.480929468193713   0.237657317049344   0.110811697688788   1.0000000
B2   B   0.498094755024549   0.392265184365561   0.110730622468049   1.0000000
B2   B   0.465946290549730   0.669267457805571   0.110586315035501   1.0000000
B2   B   0.476212115721338   0.812021531462511   0.110796957570171   1.0000000
B2   B   0.621072148436742   0.955048616316056   0.110787145123362   1.0000000
B2   B   0.621941637140613   0.094806727526313   0.110704537178163   1.0000000
B2   B   0.623022646500562   0.234573438486422   0.110728987434561   1.0000000
B2   B   0.625696863285220   0.373314304287427   0.110882202269251   1.0000000
B2   B   0.613342800863535   0.498033099808760   0.110620778115139   1.0000000
B2   B   0.619977078258021   0.815959282146155   0.110576058663912   1.0000000
B2   B   0.765502246244203   0.954366347982900   0.110755045347675   1.0000000
B2   B   0.765629655295733   0.095534867997750   0.110705185555435   1.0000000
B2   B   0.766201776951389   0.236683481278980   0.110683662045271   1.0000000
B2   B   0.767487802121772   0.378039809977013   0.110748424941249   1.0000000
B2   B   0.767050033819679   0.518938677518412   0.110901032199676   1.0000000
B2   B   0.763134176460153   0.656915975236878   0.110593879803118   1.0000000
B2   B   0.766978645864370   0.813322023555484   0.110585153618605   1.0000000
Se2   Se   0.615663875409028   0.659021645800274   0.110183258628465   1.0000000
N2   N   0.954235423163259   0.904121556188618   0.110715727867559   1.0000000
N2   N   0.957562049483161   0.049514479601510   0.110756764747731   1.0000000
N2   N   0.957088900965354   0.191126084856797   0.110834840340670   1.0000000
N2   N   0.956496803130933   0.332921013530447   0.110734118565539   1.0000000
N2   N   0.955700807248081   0.475360440921937   0.110721003129596   1.0000000
N2   N   0.955373093719610   0.618360873008606   0.110786110316107   1.0000000
N2   N   0.953561690007189   0.761220110818158   0.110792812320415   1.0000000
N2   N   0.097600685543654   0.906151340657591   0.110723478150596   1.0000000
N2   N   0.100110918596959   0.050065864831676   0.110705359573238   1.0000000
N2   N   0.101106410539365   0.192922048945912   0.110827668952449   1.0000000
N2   N   0.098975765739484   0.334051750285100   0.110800359421430   1.0000000
N2   N   0.096261261404105   0.476418929819399   0.110691328901756   1.0000000
N2   N   0.095932029811556   0.619781644687016   0.110715210074884   1.0000000
N2   N   0.096554887819101   0.763114147597353   0.110738759654147   1.0000000
N2   N   0.239974617987966   0.906994995485858   0.110737183180786   1.0000000
N2   N   0.241986117733288   0.050509907896765   0.110736372902165   1.0000000
N2   N   0.246576706202262   0.196416056473873   0.110777711435731   1.0000000
N2   N   0.244123297878599   0.336805604644411   0.110775074481420   1.0000000
N2   N   0.236386815361156   0.477059697736396   0.110698678352892   1.0000000
N2   N   0.235531031234262   0.620609397917386   0.110745144316812   1.0000000
N2   N   0.238580970659553   0.764094274456251   0.110805988844736   1.0000000
N2   N   0.382405036823281   0.907165671150600   0.110772527309593   1.0000000
N2   N   0.383768191396304   0.049693190074885   0.110751655469309   1.0000000
N2   N   0.386324609101410   0.193889619564254   0.110783986743730   1.0000000
N2   N   0.396720856481621   0.345732635314588   0.110763117290101   1.0000000
N2   N   0.376694306560198   0.479995667370219   0.110733155415649   1.0000000
N2   N   0.373035306928459   0.621580972917999   0.110924192763323   1.0000000
N2   N   0.380624090827270   0.764993721425382   0.110858881340558   1.0000000
N2   N   0.525401081339838   0.906742270510402   0.110789458919780   1.0000000
N2   N   0.526546221084624   0.048148310522474   0.110710816096396   1.0000000
N2   N   0.527850626632417   0.189568966441807   0.110760331917105   1.0000000
N2   N   0.530985935283370   0.331581347297440   0.110806340688106   1.0000000
N2   N   0.465418891469982   0.525269505198904   0.110892810020479   1.0000000
N2   N   0.496979548816393   0.610827558424973   0.110185225023233   1.0000000
N2   N   0.523398758619897   0.764256150668407   0.110615343655541   1.0000000
N2   N   0.669577567102414   0.909691369696194   0.110764064922325   1.0000000
N2   N   0.670175424021132   0.048903869117357   0.110695557859709   1.0000000
N2   N   0.670965207447349   0.188690161544064   0.110688373164092   1.0000000
N2   N   0.672899614897868   0.328045968742577   0.110761819864171   1.0000000
N2   N   0.673234795165579   0.465896691508292   0.110952890813083   1.0000000
N2   N   0.670039220241918   0.591962523298472   0.110173942659076   1.0000000
N2   N   0.675158430092837   0.779479368443137   0.110275420387456   1.0000000
N2   N   0.814892399306429   0.908040278752468   0.110720838390335   1.0000000
N2   N   0.813874346714103   0.048930426836535   0.110737034432183   1.0000000
N2   N   0.814032487541695   0.190098305722803   0.110679061918606   1.0000000
N2   N   0.814681910238852   0.331355863001941   0.110659978132427   1.0000000
N2   N   0.814867174743521   0.472946379996132   0.110805545808831   1.0000000
N2   N   0.814237438849601   0.614637784461597   0.110853613940829   1.0000000
N2   N   0.806911181183421   0.756401674781785   0.110629935840709   1.0000000


