data_1
_audit_creation_method   'vasp2cif'
_cell_length_a    17.52789999999977
_cell_length_b    17.52789999999977
_cell_length_c    15.0
_cell_angle_alpha    90.0
_cell_angle_beta    90.0
_cell_angle_gamma    119.99999999999916

_symmetry_space_group_name_H-M    'P 1'
loop_
_atom_site_label
_atom_site_type_symbol
_atom_site_fract_x
_atom_site_fract_y
_atom_site_fract_z
_atom_site_occupancy
S2   S   0.440088374663191   0.505759389955596   0.110415981781689   1.0000000
B2   B   0.904695742710232   0.952335043922058   0.111053883283573   1.0000000
B2   B   0.906101906151023   0.096111227607537   0.111079409132527   1.0000000
B2   B   0.906384417143549   0.238906555417274   0.111131913816196   1.0000000
B2   B   0.906101906151023   0.381419372234498   0.111079409132527   1.0000000
B2   B   0.904695742710232   0.523791104036181   0.111053883283573   1.0000000
B2   B   0.903479075269571   0.666098809313478   0.111091765547534   1.0000000
B2   B   0.903479075269571   0.808810671204073   0.111091765547534   1.0000000
B2   B   0.047086385013056   0.951921162884735   0.111048494211251   1.0000000
B2   B   0.048688595629332   0.095928516518642   0.111032190338598   1.0000000
B2   B   0.049443244883122   0.239510516842249   0.110995242194420   1.0000000
B2   B   0.049443244883122   0.381363133287874   0.110995242194420   1.0000000
B2   B   0.048688595629332   0.524190484358685   0.111032190338598   1.0000000
B2   B   0.047086385013056   0.666597338932321   0.111048494211251   1.0000000
B2   B   0.046696307123888   0.809064211963952   0.111018702399306   1.0000000
B2   B   0.189962667542388   0.951798342121169   0.111043400128156   1.0000000
B2   B   0.190394926802752   0.094465099970221   0.111072698627893   1.0000000
B2   B   0.192618647901681   0.239064878382447   0.111008160115518   1.0000000
B2   B   0.193168446024890   0.382299425635945   0.111096393100203   1.0000000
B2   B   0.192618647901681   0.524984174767226   0.111008160115518   1.0000000
B2   B   0.190394926802752   0.667360232080541   0.111072698627893   1.0000000
B2   B   0.189962667542388   0.809596442225235   0.111043400128156   1.0000000
B2   B   0.333310496640625   0.952371306721817   0.111061394797402   1.0000000
B2   B   0.333369394884275   0.093564075656069   0.111119695346664   1.0000000
B2   B   0.333633803872470   0.234299132431304   0.111218209224052   1.0000000
B2   B   0.335337677139626   0.373828175770429   0.110771580340203   1.0000000
B2   B   0.335337677139626   0.532939906616195   0.110771580340203   1.0000000
B2   B   0.333633803872470   0.670765076688156   0.111218209224052   1.0000000
B2   B   0.333369394884275   0.811235724475194   0.111119695346664   1.0000000
B2   B   0.476929717972001   0.953499428836594   0.111052649676534   1.0000000
B2   B   0.476929717972001   0.094860694382407   0.111052649676534   1.0000000
B2   B   0.476925732072756   0.236126489882393   0.111107850703949   1.0000000
B2   B   0.476705240116347   0.376676821608866   0.110937829436144   1.0000000
B2   B   0.476705240116347   0.671458823754463   0.110937829436144   1.0000000
B2   B   0.476925732072756   0.812229647437370   0.111107850703949   1.0000000
B2   B   0.620256466361397   0.953689448000815   0.111029664861473   1.0000000
B2   B   0.620358383306712   0.095893538498851   0.111034225862763   1.0000000
B2   B   0.620256466361397   0.237997423607573   0.111029664861473   1.0000000
B2   B   0.619652973318167   0.380112113168416   0.111024303714247   1.0000000
B2   B   0.615477723399877   0.522532160571799   0.110751522004704   1.0000000
B2   B   0.615477723399885   0.664375968076086   0.110751522004704   1.0000000
B2   B   0.619652973318167   0.810971265396772   0.111024303714247   1.0000000
B2   B   0.762779703895901   0.953135095071105   0.111040822116900   1.0000000
B2   B   0.763377181521160   0.096129735410042   0.111089441476261   1.0000000
B2   B   0.763377181521160   0.238676139802102   0.111089441476261   1.0000000
B2   B   0.762779703895901   0.381075014071761   0.111040822116900   1.0000000
B2   B   0.760397388067102   0.523219051777708   0.111094061780961   1.0000000
B2   B   0.759589520982695   0.665509963115348   0.111079488901770   1.0000000
B2   B   0.760397388067102   0.808608741537385   0.111094061780961   1.0000000
N2   N   0.951744018991343   0.904212495340115   0.111042682694545   1.0000000
N2   N   0.953194422092756   0.047931380666782   0.111035973952340   1.0000000
N2   N   0.953964369368094   0.191296763154220   0.111058878638810   1.0000000
N2   N   0.953964369368094   0.334094588331867   0.111058878638810   1.0000000
N2   N   0.953194422092749   0.476690023543980   0.111035973952340   1.0000000
N2   N   0.951744018991336   0.618960217326209   0.111042682694545   1.0000000
N2   N   0.951267201672067   0.761347947673534   0.111043180809666   1.0000000
N2   N   0.094639521524617   0.904277877536774   0.111009207015955   1.0000000
N2   N   0.095304627571409   0.047303030183199   0.111033336853857   1.0000000
N2   N   0.097360647894246   0.191722783759515   0.110982145725102   1.0000000
N2   N   0.097288598603862   0.334358646138932   0.110974753478069   1.0000000
N2   N   0.097360647894246   0.477066557808731   0.110982145725102   1.0000000
N2   N   0.095304627571409   0.619430291063220   0.111033336853857   1.0000000
N2   N   0.094639521524617   0.761792049218848   0.111009207015955   1.0000000
N2   N   0.237903089682753   0.904666747456882   0.111029079952248   1.0000000
N2   N   0.238036931062831   0.046864039690863   0.111074888959875   1.0000000
N2   N   0.238724667740423   0.189752403574055   0.111075562452231   1.0000000
N2   N   0.242566213003270   0.336286632827654   0.110902792254786   1.0000000
N2   N   0.242566213003270   0.477708273849611   0.110902792254786   1.0000000
N2   N   0.238724667740423   0.620400957841348   0.111075562452231   1.0000000
N2   N   0.238036931062831   0.762601585046957   0.111074888959875   1.0000000
N2   N   0.381506935578496   0.905875438893793   0.111054996168867   1.0000000
N2   N   0.381506935578503   0.047060190359706   0.111054996168867   1.0000000
N2   N   0.381728011791426   0.188119567273020   0.111162289541684   1.0000000
N2   N   0.382772374644669   0.328615864191295   0.111197453712100   1.0000000
N2   N   0.382772374644669   0.625585204128361   0.111197453712100   1.0000000
N2   N   0.381728011791426   0.765037138193402   0.111162289541684   1.0000000
N2   N   0.525001322393657   0.906728826042773   0.111037230397349   1.0000000
N2   N   0.525005338229699   0.048216160174349   0.111021795407142   1.0000000
N2   N   0.525001322393657   0.189701190025895   0.111037230397349   1.0000000
N2   N   0.524964592306749   0.331021134505870   0.111038722134831   1.0000000
N2   N   0.519755347310098   0.470878058719286   0.110412898671717   1.0000000
N2   N   0.519755347310098   0.620305982265811   0.110412898671717   1.0000000
N2   N   0.524964592306749   0.765372151475874   0.111038722134831   1.0000000
N2   N   0.667679238040951   0.905920134296786   0.111011574322886   1.0000000
N2   N   0.668095528788145   0.048603705724217   0.111022746784831   1.0000000
N2   N   0.668095528788153   0.190918805182929   0.111022746784831   1.0000000
N2   N   0.667679238040951   0.333187797419170   0.111011574322886   1.0000000
N2   N   0.664518332960490   0.475315049231983   0.110994911339958   1.0000000
N2   N   0.663736338419168   0.617582516047586   0.110836105849224   1.0000000
N2   N   0.664518332960490   0.760631977403506   0.110994911339958   1.0000000
N2   N   0.809120140711208   0.904303933824575   0.111054801509074   1.0000000
N2   N   0.810779229950883   0.048336073341990   0.111057926472728   1.0000000
N2   N   0.811022628815456   0.191224805466734   0.111124910119241   1.0000000
N2   N   0.810779229950883   0.333870138726897   0.111057926472728   1.0000000
N2   N   0.809120140711208   0.476244900560627   0.111054801509074   1.0000000
N2   N   0.807885138337252   0.618406051934452   0.111114219836460   1.0000000
N2   N   0.807885138337260   0.760907780077811   0.111114219836460   1.0000000


