data_1
_audit_creation_method   'vasp2cif'
_cell_length_a    14.93631414619966
_cell_length_b    14.936314146199727
_cell_length_c    13.341276283792837
_cell_angle_alpha    90.0
_cell_angle_beta    90.0
_cell_angle_gamma    119.99999999999984

_symmetry_space_group_name_H-M    'P 1'
loop_
_atom_site_label
_atom_site_type_symbol
_atom_site_fract_x
_atom_site_fract_y
_atom_site_fract_z
_atom_site_occupancy
Se2   Se   0.444444444444443   0.388888888888886   0.375000000000000   1.0000000
N2   N   0.111124637811179   0.055590020310015   0.125275602262945   1.0000000
N2   N   0.611051418587089   0.555512816822113   0.123751113080230   1.0000000
N2   N   0.444465382498837   0.055590020310015   0.125275602262945   1.0000000
N2   N   0.944423334643261   0.555538580775622   0.124989237824336   1.0000000
N2   N   0.777777777777779   0.055555555555557   0.124697337061934   1.0000000
N2   N   0.111111111111114   0.722222222222221   0.625236948162550   1.0000000
N2   N   0.444465382498837   0.722208695522157   0.624724397737054   1.0000000
N2   N   0.277820516511223   0.222281914746247   0.626248886919767   1.0000000
N2   N   0.777743313023320   0.722208695522157   0.624724397737054   1.0000000
N2   N   0.611111520431661   0.222221812901674   0.624811820401526   1.0000000
N2   N   0.944434918882039   0.222211056752339   0.625103217088714   1.0000000
N2   N   0.277794752557714   0.722218087200972   0.124989237824336   1.0000000
N2   N   0.111110292470019   0.222221812901674   0.125188179598474   1.0000000
N2   N   0.444461398235025   0.222281914746247   0.123751113080230   1.0000000
N2   N   0.611111520431661   0.722223040863316   0.125188179598474   1.0000000
N2   N   0.944423334643261   0.722218087200972   0.124989237824336   1.0000000
N2   N   0.777776137870296   0.222211056752339   0.124896782911288   1.0000000
N2   N   0.111115246132362   0.888909998690068   0.625010762175663   1.0000000
N2   N   0.444464381268012   0.888898857300671   0.625076448503459   1.0000000
N2   N   0.277820516511223   0.388871935098304   0.626248886919767   1.0000000
N2   N   0.611051418587089   0.388871935098304   0.626248886919767   1.0000000
N2   N   0.777776137870296   0.888898414451289   0.625103217088714   1.0000000
N2   N   0.944434476032657   0.388868952065317   0.625076448503459   1.0000000
N2   N   0.111124637811179   0.388867950834491   0.125275602262945   1.0000000
N2   N   0.277794752557714   0.888909998690068   0.124989237824336   1.0000000
N2   N   0.611122276581000   0.888898414451289   0.124896782911288   1.0000000
N2   N   0.444444444444443   0.388888888888886   0.115714940839479   1.0000000
N2   N   0.944434476032657   0.888898857300671   0.124923551496541   1.0000000
N2   N   0.777743313023320   0.388867950834491   0.125275602262945   1.0000000
N2   N   0.277798705514008   0.555534627819330   0.624762298302266   1.0000000
N2   N   0.111124637811179   0.055590020310015   0.624724397737054   1.0000000
N2   N   0.611051418587089   0.555512816822113   0.626248886919767   1.0000000
N2   N   0.444465382498837   0.055590020310015   0.624724397737054   1.0000000
N2   N   0.944423334643261   0.555538580775622   0.625010762175663   1.0000000
N2   N   0.111115246132362   0.555538580775622   0.124989237824336   1.0000000
N2   N   0.777777777777779   0.055555555555557   0.625302662938066   1.0000000
N2   N   0.277798705514008   0.055597411028016   0.125237701697735   1.0000000
N2   N   0.444461398235025   0.555512816822113   0.123751113080230   1.0000000
N2   N   0.777735922305319   0.555534627819330   0.125237701697735   1.0000000
N2   N   0.611122276581000   0.055557195463037   0.124896782911288   1.0000000
N2   N   0.444461398235025   0.555512816822113   0.626248886919767   1.0000000
N2   N   0.944434918882039   0.055557195463037   0.124896782911288   1.0000000
N2   N   0.277794752557714   0.722218087200972   0.625010762175663   1.0000000
N2   N   0.111110292470019   0.222221812901674   0.624811820401526   1.0000000
N2   N   0.444461398235025   0.222281914746247   0.626248886919767   1.0000000
N2   N   0.611111520431661   0.722223040863316   0.624811820401526   1.0000000
N2   N   0.944423334643261   0.722218087200972   0.625010762175663   1.0000000
N2   N   0.777776137870296   0.222211056752339   0.625103217088714   1.0000000
N2   N   0.111111111111114   0.722222222222221   0.124763051837449   1.0000000
N2   N   0.444465382498837   0.722208695522157   0.125275602262945   1.0000000
N2   N   0.277820516511223   0.222281914746247   0.123751113080230   1.0000000
N2   N   0.777743313023320   0.722208695522157   0.125275602262945   1.0000000
N2   N   0.611111520431661   0.222221812901674   0.125188179598474   1.0000000
N2   N   0.944434918882039   0.222211056752339   0.124896782911288   1.0000000
N2   N   0.111124637811179   0.388867950834491   0.624724397737054   1.0000000
N2   N   0.277794752557714   0.888909998690068   0.625010762175663   1.0000000
N2   N   0.611122276581000   0.888898414451289   0.625103217088714   1.0000000
N2   N   0.444444444444443   0.388888888888886   0.634285059160521   1.0000000
N2   N   0.944434476032657   0.888898857300671   0.625076448503459   1.0000000
N2   N   0.111115246132362   0.888909998690068   0.124989237824336   1.0000000
N2   N   0.777743313023320   0.388867950834491   0.624724397737054   1.0000000
N2   N   0.444464381268012   0.888898857300671   0.124923551496541   1.0000000
N2   N   0.277820516511223   0.388871935098304   0.123751113080230   1.0000000
N2   N   0.277798705514008   0.555534627819330   0.125237701697735   1.0000000
N2   N   0.611051418587089   0.388871935098304   0.123751113080230   1.0000000
N2   N   0.777776137870296   0.888898414451289   0.124896782911288   1.0000000
N2   N   0.944434476032657   0.388868952065317   0.124923551496541   1.0000000
N2   N   0.111115246132362   0.555538580775622   0.625010762175663   1.0000000
N2   N   0.277798705514008   0.055597411028016   0.624762298302266   1.0000000
N2   N   0.777735922305319   0.555534627819330   0.624762298302266   1.0000000
N2   N   0.611122276581000   0.055557195463037   0.625103217088714   1.0000000
N2   N   0.944434918882039   0.055557195463037   0.625103217088714   1.0000000
N2   N   0.054135425503659   0.110201665606703   0.375000000000000   1.0000000
N2   N   0.556061319877463   0.612122639754928   0.375000000000000   1.0000000
N2   N   0.387132541367834   0.101766568230897   0.375000000000000   1.0000000
N2   N   0.892218754101478   0.612776043717411   0.375000000000000   1.0000000
N2   N   0.722485894101258   0.110847439232076   0.375000000000000   1.0000000
N2   N   0.055557095083875   0.777776238249460   0.875000000000000   1.0000000
N2   N   0.388882939236821   0.777778566486918   0.875000000000000   1.0000000
N2   N   0.222221958212937   0.277777645773137   0.875000000000000   1.0000000
N2   N   0.722224293043633   0.777774147881612   0.875000000000000   1.0000000
N2   N   0.555555687560200   0.277777645773137   0.875000000000000   1.0000000
N2   N   0.888892227797899   0.277784455595811   0.875000000000000   1.0000000
N2   N   0.221567977743807   0.777450655538573   0.375000000000000   1.0000000
N2   N   0.054135425503659   0.277267093230292   0.375000000000000   1.0000000
N2   N   0.373012220102537   0.246024440205082   0.375000000000000   1.0000000
N2   N   0.556066240103044   0.779197907829676   0.375000000000000   1.0000000
N2   N   0.891518233218931   0.779861806918225   0.375000000000000   1.0000000
N2   N   0.723131667726634   0.277267093230292   0.375000000000000   1.0000000
N2   N   0.055554766846420   0.944437706083243   0.875000000000000   1.0000000
N2   N   0.388882939236821   0.944437706083243   0.875000000000000   1.0000000
N2   N   0.222214971386894   0.444454737681848   0.875000000000000   1.0000000
N2   N   0.555594461991974   0.444463897662651   0.875000000000000   1.0000000
N2   N   0.722220590418654   0.944441180837311   0.875000000000000   1.0000000
N2   N   0.888895627250086   0.444450394096507   0.875000000000000   1.0000000
N2   N   0.053471526415109   0.444989759634039   0.375000000000000   1.0000000
N2   N   0.220557289615927   0.941114579231850   0.375000000000000   1.0000000
N2   N   0.555976451492299   0.944654892412812   0.375000000000000   1.0000000
N2   N   0.373012220102537   0.460321113230792   0.375000000000000   1.0000000
N2   N   0.888678440920517   0.944654892412812   0.375000000000000   1.0000000
N2   N   0.731566765102440   0.446200791965495   0.375000000000000   1.0000000
N2   N   0.222215630943700   0.611117702389633   0.875000000000000   1.0000000
N2   N   0.055559185451723   0.111109040289708   0.875000000000000   1.0000000
N2   N   0.555555687560200   0.611111375120398   0.875000000000000   1.0000000
N2   N   0.388878595651481   0.111093567038382   0.875000000000000   1.0000000
N2   N   0.888902071445930   0.611117702389633   0.875000000000000   1.0000000
N2   N   0.055882677794765   0.611765355589530   0.375000000000000   1.0000000
N2   N   0.722220590418654   0.111112742914682   0.875000000000000   1.0000000
N2   N   0.214634026863055   0.101766568230897   0.375000000000000   1.0000000
N2   N   0.387132541367834   0.618699306470281   0.375000000000000   1.0000000
N2   N   0.731566765102440   0.618699306470281   0.375000000000000   1.0000000
N2   N   0.556066240103044   0.110201665606703   0.375000000000000   1.0000000
N2   N   0.388878595651481   0.611118361946441   0.875000000000000   1.0000000
N2   N   0.888361545130809   0.110847439232076   0.375000000000000   1.0000000
N2   N   0.222219143165585   0.777776238249460   0.875000000000000   1.0000000
N2   N   0.055559185451723   0.277783478495351   0.875000000000000   1.0000000
N2   N   0.388869435670677   0.277738871341361   0.875000000000000   1.0000000
N2   N   0.555549854837987   0.777774147881612   0.875000000000000   1.0000000
N2   N   0.888895627250086   0.777778566486918   0.875000000000000   1.0000000
N2   N   0.722224293043633   0.277783478495351   0.875000000000000   1.0000000
N2   N   0.055882677794765   0.777450655538573   0.375000000000000   1.0000000
N2   N   0.388343573699290   0.779861806918225   0.375000000000000   1.0000000
N2   N   0.221210693578408   0.277272013455872   0.375000000000000   1.0000000
N2   N   0.723131667726634   0.779197907829676   0.375000000000000   1.0000000
N2   N   0.556061319877463   0.277272013455872   0.375000000000000   1.0000000
N2   N   0.888678440920517   0.277356881841036   0.375000000000000   1.0000000
N2   N   0.055554766846420   0.444450394096507   0.875000000000000   1.0000000
N2   N   0.222215630943700   0.944431261887398   0.875000000000000   1.0000000
N2   N   0.555548877737523   0.944441105535429   0.875000000000000   1.0000000
N2   N   0.388869435670677   0.444463897662651   0.875000000000000   1.0000000
N2   N   0.888892227797899   0.944441105535429   0.875000000000000   1.0000000
N2   N   0.053471526415109   0.941815100114397   0.375000000000000   1.0000000
N2   N   0.722239766294955   0.444454737681848   0.875000000000000   1.0000000
N2   N   0.388343573699290   0.941815100114397   0.375000000000000   1.0000000
N2   N   0.214634026863055   0.446200791965495   0.375000000000000   1.0000000
N2   N   0.220557289615927   0.612776043717411   0.375000000000000   1.0000000
N2   N   0.587308893128255   0.460321113230792   0.375000000000000   1.0000000
N2   N   0.722485894101258   0.944971788202520   0.375000000000000   1.0000000
N2   N   0.891518233218931   0.444989759634039   0.375000000000000   1.0000000
N2   N   0.055557095083875   0.611114190167751   0.875000000000000   1.0000000
N2   N   0.222214971386894   0.111093567038382   0.875000000000000   1.0000000
N2   N   0.722239766294955   0.611118361946441   0.875000000000000   1.0000000
N2   N   0.555549854837987   0.111109040289708   0.875000000000000   1.0000000
N2   N   0.888892152496018   0.111112742914682   0.875000000000000   1.0000000
B2   B   0.106580568054841   0.051277627274852   0.375000000000000   1.0000000
B2   B   0.621829215281934   0.563673147082356   0.375000000000000   1.0000000
B2   B   0.444697059220011   0.051277627274852   0.375000000000000   1.0000000
B2   B   0.945801684264654   0.555983326319901   0.375000000000000   1.0000000
B2   B   0.777777777777779   0.055555555555557   0.375000000000000   1.0000000
B2   B   0.111111111111114   0.722222222222221   0.875000000000000   1.0000000
B2   B   0.444429617288127   0.722177017295547   0.875000000000000   1.0000000
B2   B   0.277844592023203   0.222269123849774   0.875000000000000   1.0000000
B2   B   0.777747400007417   0.722177017295547   0.875000000000000   1.0000000
B2   B   0.611074050929575   0.222259282403761   0.875000000000000   1.0000000
B2   B   0.944476244454473   0.222242896253532   0.875000000000000   1.0000000
B2   B   0.277350007013433   0.723151691278088   0.375000000000000   1.0000000
B2   B   0.110597068716267   0.221965201024798   0.375000000000000   1.0000000
B2   B   0.441843931800420   0.211504118051404   0.375000000000000   1.0000000
B2   B   0.611368132308537   0.722736264617066   0.375000000000000   1.0000000
B2   B   0.945801684264654   0.723151691278088   0.375000000000000   1.0000000
B2   B   0.777842944677970   0.221672319397626   0.375000000000000   1.0000000
B2   B   0.111122923467386   0.888902439486922   0.875000000000000   1.0000000
B2   B   0.444431144730221   0.888882239031773   0.875000000000000   1.0000000
B2   B   0.277844592023203   0.388908801506757   0.875000000000000   1.0000000
B2   B   0.611064209483564   0.388908801506757   0.875000000000000   1.0000000
B2   B   0.777766651799063   0.888857088878856   0.875000000000000   1.0000000
B2   B   0.944451094301555   0.388902188603107   0.875000000000000   1.0000000
B2   B   0.106580568054841   0.388636274113318   0.375000000000000   1.0000000
B2   B   0.277350007013433   0.887531649068674   0.375000000000000   1.0000000
B2   B   0.611661013935709   0.889503958613670   0.375000000000000   1.0000000
B2   B   0.944222792063821   0.889110541269508   0.375000000000000   1.0000000
B2   B   0.782055706058484   0.388636274113318   0.375000000000000   1.0000000
B2   B   0.277795735275701   0.555537598057634   0.875000000000000   1.0000000
B2   B   0.111156316037791   0.055585933325918   0.875000000000000   1.0000000
B2   B   0.611064209483564   0.555488741310133   0.875000000000000   1.0000000
B2   B   0.444429617288127   0.055585933325918   0.875000000000000   1.0000000
B2   B   0.944430893846406   0.555553817313794   0.875000000000000   1.0000000
B2   B   0.110181642055250   0.555983326319901   0.375000000000000   1.0000000
B2   B   0.777777777777779   0.055555555555557   0.875000000000000   1.0000000
B2   B   0.275530511353506   0.051061022707014   0.375000000000000   1.0000000
B2   B   0.441843931800420   0.563673147082356   0.375000000000000   1.0000000
B2   B   0.782272310626323   0.557802821979829   0.375000000000000   1.0000000
B2   B   0.611661013935709   0.055490388655367   0.375000000000000   1.0000000
B2   B   0.444424531826571   0.555488741310133   0.875000000000000   1.0000000
B2   B   0.943829374719658   0.055490388655367   0.375000000000000   1.0000000
B2   B   0.277779516019541   0.722210409865949   0.875000000000000   1.0000000
B2   B   0.111185231474193   0.222259282403761   0.875000000000000   1.0000000
B2   B   0.444424531826571   0.222269123849774   0.875000000000000   1.0000000
B2   B   0.611074050929575   0.722148101859141   0.875000000000000   1.0000000
B2   B   0.944430893846406   0.722210409865949   0.875000000000000   1.0000000
B2   B   0.777766651799063   0.222242896253532   0.875000000000000   1.0000000
B2   B   0.111111111111114   0.722222222222221   0.375000000000000   1.0000000
B2   B   0.444697059220011   0.726752765278496   0.375000000000000   1.0000000
B2   B   0.269660186250982   0.211504118051404   0.375000000000000   1.0000000
B2   B   0.782055706058484   0.726752765278496   0.375000000000000   1.0000000
B2   B   0.611368132308537   0.221965201024798   0.375000000000000   1.0000000
B2   B   0.943829374719655   0.221672319397626   0.375000000000000   1.0000000
B2   B   0.111156316037791   0.388903716045201   0.875000000000000   1.0000000
B2   B   0.277779516019541   0.888902439486922   0.875000000000000   1.0000000
B2   B   0.611090437079804   0.888857088878856   0.875000000000000   1.0000000
B2   B   0.444444444444443   0.388888888888886   0.875000000000000   1.0000000
B2   B   0.944451094301555   0.888882239031773   0.875000000000000   1.0000000
B2   B   0.110181642055250   0.887531649068674   0.375000000000000   1.0000000
B2   B   0.777747400007417   0.388903716045201   0.875000000000000   1.0000000
B2   B   0.444887749205685   0.889110541269508   0.375000000000000   1.0000000
B2   B   0.269660186250982   0.391489401532909   0.375000000000000   1.0000000
B2   B   0.275530511353506   0.557802821979829   0.375000000000000   1.0000000
B2   B   0.621829215281934   0.391489401532909   0.375000000000000   1.0000000
B2   B   0.777842944677970   0.889503958613673   0.375000000000000   1.0000000
B2   B   0.944222792063821   0.388445584127644   0.375000000000000   1.0000000
B2   B   0.111122923467386   0.555553817313794   0.875000000000000   1.0000000
B2   B   0.277795735275701   0.055591470551404   0.875000000000000   1.0000000
B2   B   0.777741862781934   0.555537598057634   0.875000000000000   1.0000000
B2   B   0.611090437079804   0.055566681534275   0.875000000000000   1.0000000
B2   B   0.944476244454473   0.055566681534275   0.875000000000000   1.0000000
B2   B   0.055638610148453   0.111198895039234   0.125375039177354   1.0000000
B2   B   0.555451228508515   0.610902457017028   0.124671998994633   1.0000000
B2   B   0.388975578954296   0.111376708820646   0.125318859001499   1.0000000
B2   B   0.888736036989165   0.611034685161255   0.125308759751305   1.0000000
B2   B   0.722212548180111   0.111120785153224   0.124986362064870   1.0000000
B2   B   0.055533141575230   0.777800191758108   0.624989082373800   1.0000000
B2   B   0.388952230966016   0.777737595632130   0.624740864435850   1.0000000
B2   B   0.222430876316304   0.277882104824822   0.625328001005369   1.0000000
B2   B   0.722134438294098   0.777694723184885   0.624624960822647   1.0000000
B2   B   0.555451228508515   0.277882104824822   0.625328001005369   1.0000000
B2   B   0.888876191044329   0.277752382088667   0.624946683151446   1.0000000
B2   B   0.222267050182876   0.777800191758108   0.125010917626199   1.0000000
B2   B   0.055638610148453   0.277773048442554   0.125375039177354   1.0000000
B2   B   0.389104465841845   0.278208931683696   0.122022216543366   1.0000000
B2   B   0.555560284890780   0.777694723184885   0.125375039177354   1.0000000
B2   B   0.888785364666106   0.777737595632130   0.125259135564152   1.0000000
B2   B   0.722134438294098   0.277773048442554   0.125375039177354   1.0000000
B2   B   0.055595737701207   0.944547968667223   0.624740864435850   1.0000000
B2   B   0.388952230966016   0.944547968667223   0.624740864435850   1.0000000
B2   B   0.222401129866343   0.444357754379033   0.624681140998499   1.0000000
B2   B   0.555124401649638   0.444228867491483   0.627977783456631   1.0000000
B2   B   0.722212548180111   0.944425096360224   0.625013637935131   1.0000000
B2   B   0.888785364666106   0.444381102367313   0.624740864435850   1.0000000
B2   B   0.055595737701207   0.444381102367313   0.125259135564152   1.0000000
B2   B   0.222298648172082   0.944597296344163   0.125308759751305   1.0000000
B2   B   0.555580951244667   0.944457142288999   0.125053316848555   1.0000000
B2   B   0.389104465841845   0.444228867491483   0.122022216543366   1.0000000
B2   B   0.888876191044329   0.944457142288999   0.125053316848555   1.0000000
B2   B   0.721956624512690   0.444357754379033   0.125318859001499   1.0000000
B2   B   0.222298648172082   0.611034685161255   0.624691240248696   1.0000000
B2   B   0.055638610148453   0.111198895039234   0.624624960822647   1.0000000
B2   B   0.555451228508515   0.610902457017028   0.625328001005369   1.0000000
B2   B   0.388975578954296   0.111376708820646   0.624681140998499   1.0000000
B2   B   0.888736036989165   0.611034685161255   0.624691240248696   1.0000000
B2   B   0.055533141575230   0.611066283150458   0.125010917626199   1.0000000
B2   B   0.722212548180111   0.111120785153224   0.625013637935131   1.0000000
B2   B   0.222401129866343   0.111376708820646   0.125318859001499   1.0000000
B2   B   0.388975578954296   0.610932203466995   0.125318859001499   1.0000000
B2   B   0.721956624512690   0.610932203466995   0.125318859001499   1.0000000
B2   B   0.555560284890780   0.111198895039234   0.125375039177354   1.0000000
B2   B   0.388975578954296   0.610932203466995   0.624681140998499   1.0000000
B2   B   0.888908236973105   0.111120785153224   0.124986362064870   1.0000000
B2   B   0.222267050182876   0.777800191758108   0.624989082373800   1.0000000
B2   B   0.055638610148453   0.277773048442554   0.624624960822647   1.0000000
B2   B   0.389104465841845   0.278208931683696   0.627977783456631   1.0000000
B2   B   0.555560284890780   0.777694723184885   0.624624960822647   1.0000000
B2   B   0.888785364666106   0.777737595632130   0.624740864435850   1.0000000
B2   B   0.722134438294098   0.277773048442554   0.624624960822647   1.0000000
B2   B   0.055533141575230   0.777800191758108   0.125010917626199   1.0000000
B2   B   0.388952230966016   0.777737595632130   0.125259135564152   1.0000000
B2   B   0.222430876316304   0.277882104824822   0.124671998994633   1.0000000
B2   B   0.722134438294098   0.777694723184885   0.125375039177354   1.0000000
B2   B   0.555451228508515   0.277882104824822   0.124671998994633   1.0000000
B2   B   0.888876191044329   0.277752382088667   0.125053316848555   1.0000000
B2   B   0.055595737701207   0.444381102367313   0.624740864435850   1.0000000
B2   B   0.222298648172082   0.944597296344163   0.624691240248696   1.0000000
B2   B   0.555580951244667   0.944457142288999   0.624946683151446   1.0000000
B2   B   0.389104465841845   0.444228867491483   0.627977783456631   1.0000000
B2   B   0.888876191044329   0.944457142288999   0.624946683151446   1.0000000
B2   B   0.055595737701207   0.944547968667223   0.125259135564152   1.0000000
B2   B   0.721956624512690   0.444357754379033   0.624681140998499   1.0000000
B2   B   0.388952230966016   0.944547968667223   0.125259135564152   1.0000000
B2   B   0.222401129866343   0.444357754379033   0.125318859001499   1.0000000
B2   B   0.222298648172082   0.611034685161255   0.125308759751305   1.0000000
B2   B   0.555124401649638   0.444228867491483   0.122022216543366   1.0000000
B2   B   0.722212548180111   0.944425096360224   0.124986362064870   1.0000000
B2   B   0.888785364666106   0.444381102367313   0.125259135564152   1.0000000
B2   B   0.055533141575230   0.611066283150458   0.624989082373800   1.0000000
B2   B   0.222401129866343   0.111376708820646   0.624681140998499   1.0000000
B2   B   0.721956624512690   0.610932203466995   0.624681140998499   1.0000000
B2   B   0.555560284890780   0.111198895039234   0.624624960822647   1.0000000
B2   B   0.888908236973105   0.111120785153224   0.625013637935131   1.0000000


