data_1
_audit_creation_method   'vasp2cif'
_cell_length_a    14.93631414619966
_cell_length_b    14.936314146199727
_cell_length_c    13.341276283792837
_cell_angle_alpha    90.0
_cell_angle_beta    90.0
_cell_angle_gamma    119.99999999999984

_symmetry_space_group_name_H-M    'P 1'
loop_
_atom_site_label
_atom_site_type_symbol
_atom_site_fract_x
_atom_site_fract_y
_atom_site_fract_z
_atom_site_occupancy
C2   C   0.609831816451314   0.389164229549879   0.375000000000000   1.0000000
C2   C   0.445999079765237   0.389164229549879   0.375000000000000   1.0000000
C2   C   0.552898844714732   0.439131022762792   0.375000000000000   1.0000000
N2   N   0.111137757428334   0.055694322822900   0.124930899936528   1.0000000
N2   N   0.611157507961007   0.555648349255342   0.124832385143201   1.0000000
N2   N   0.444550709191086   0.055739331034378   0.124948685620945   1.0000000
N2   N   0.944487935180573   0.555694316597499   0.124923391279829   1.0000000
N2   N   0.777857376158748   0.055671679595017   0.124886204753555   1.0000000
N2   N   0.111179953756087   0.722377961292020   0.625074611278309   1.0000000
N2   N   0.444528283494168   0.722360499431874   0.625062146747816   1.0000000
N2   N   0.277738652010888   0.222339262886110   0.625168944879392   1.0000000
N2   N   0.777833907724411   0.722360684146786   0.625081845506147   1.0000000
N2   N   0.611267277541893   0.222339262886110   0.625168944879392   1.0000000
N2   N   0.944510970986947   0.222355275307230   0.625076964984333   1.0000000
N2   N   0.277864674202605   0.722377961292020   0.124925388721691   1.0000000
N2   N   0.111081264656527   0.222326410429886   0.124818195103876   1.0000000
N2   N   0.444513997841888   0.222361329017111   0.125039326490650   1.0000000
N2   N   0.611193443089047   0.722360684146786   0.124918154493853   1.0000000
N2   N   0.944498882604370   0.722360499431874   0.124937853252184   1.0000000
N2   N   0.777911812440031   0.222326410429886   0.124818195103876   1.0000000
N2   N   0.111188869544676   0.889053109406827   0.625083073759710   1.0000000
N2   N   0.444530906528822   0.889053109406827   0.625083073759710   1.0000000
N2   N   0.277806197665506   0.388976050937419   0.625067912156418   1.0000000
N2   N   0.611172564282571   0.388927559384916   0.625604884112514   1.0000000
N2   N   0.777850399537759   0.889034132408847   0.625080017110233   1.0000000
N2   N   0.944523133875862   0.389034674268850   0.625059285224029   1.0000000
N2   N   0.111178207059658   0.389034674268850   0.124940714775971   1.0000000
N2   N   0.277871875390802   0.889077084114933   0.124960456013228   1.0000000
N2   N   0.611189552826358   0.889042772431882   0.124929186650769   1.0000000
N2   N   0.444421661769017   0.388927559384916   0.124395115887486   1.0000000
N2   N   0.944519886272196   0.889042772431882   0.124929186650769   1.0000000
N2   N   0.777836519938584   0.388976050937419   0.124932087843582   1.0000000
N2   N   0.277873048083590   0.555694316597499   0.625076608720171   1.0000000
N2   N   0.111137757428334   0.055694322822900   0.625069100063472   1.0000000
N2   N   0.611157507961007   0.555648349255342   0.625167614856799   1.0000000
N2   N   0.444550709191086   0.055739331034378   0.625051314379055   1.0000000
N2   N   0.944487935180573   0.555694316597499   0.625076608720171   1.0000000
N2   N   0.111188547507507   0.555710428348343   0.124921968078075   1.0000000
N2   N   0.777857376158748   0.055671679595017   0.625113795246445   1.0000000
N2   N   0.277855288509957   0.055739331034378   0.124948685620945   1.0000000
N2   N   0.444543547428818   0.555672224180888   0.124862703663866   1.0000000
N2   N   0.777795343418734   0.555672224180888   0.124862703663866   1.0000000
N2   N   0.611223232061238   0.055694322822900   0.124930899936528   1.0000000
N2   N   0.444543547428818   0.555672224180888   0.625137296336134   1.0000000
N2   N   0.944480970102933   0.055671679595017   0.124886204753555   1.0000000
N2   N   0.277864674202605   0.722377961292020   0.625074611278309   1.0000000
N2   N   0.111081264656527   0.222326410429886   0.625181804896124   1.0000000
N2   N   0.444513997841888   0.222361329017111   0.624960673509350   1.0000000
N2   N   0.611193443089047   0.722360684146786   0.625081845506147   1.0000000
N2   N   0.944498882604370   0.722360499431874   0.625062146747816   1.0000000
N2   N   0.777911812440031   0.222326410429886   0.625181804896124   1.0000000
N2   N   0.111179953756087   0.722377961292020   0.124925388721691   1.0000000
N2   N   0.444528283494168   0.722360499431874   0.124937853252184   1.0000000
N2   N   0.277738652010888   0.222339262886110   0.124831055120608   1.0000000
N2   N   0.777833907724411   0.722360684146786   0.124918154493853   1.0000000
N2   N   0.611267277541893   0.222339262886110   0.124831055120608   1.0000000
N2   N   0.944510970986947   0.222355275307230   0.124923035015667   1.0000000
N2   N   0.111178207059658   0.389034674268850   0.625059285224029   1.0000000
N2   N   0.277871875390802   0.889077084114933   0.625039543986772   1.0000000
N2   N   0.611189552826358   0.889042772431882   0.625070813349232   1.0000000
N2   N   0.444421661769017   0.388927559384916   0.625604884112514   1.0000000
N2   N   0.944519886272196   0.889042772431882   0.625070813349232   1.0000000
N2   N   0.111188869544676   0.889053109406827   0.124916926240291   1.0000000
N2   N   0.777836519938584   0.388976050937419   0.625067912156418   1.0000000
N2   N   0.444530906528822   0.889053109406827   0.124916926240291   1.0000000
N2   N   0.277806197665506   0.388976050937419   0.124932087843582   1.0000000
N2   N   0.277873048083590   0.555694316597499   0.124923391279829   1.0000000
N2   N   0.611172564282571   0.388927559384916   0.124395115887486   1.0000000
N2   N   0.777850399537759   0.889034132408847   0.124919982889768   1.0000000
N2   N   0.944523133875862   0.389034674268850   0.124940714775971   1.0000000
N2   N   0.111188547507507   0.555710428348343   0.625078031921924   1.0000000
N2   N   0.277855288509957   0.055739331034378   0.625051314379055   1.0000000
N2   N   0.777795343418734   0.555672224180888   0.625137296336134   1.0000000
N2   N   0.611223232061238   0.055694322822900   0.625069100063472   1.0000000
N2   N   0.944480970102933   0.055671679595017   0.625113795246445   1.0000000
N2   N   0.055538846122802   0.111002093007483   0.375000000000000   1.0000000
N2   N   0.555567326260057   0.611404069780171   0.375000000000000   1.0000000
N2   N   0.389647678212398   0.112628689758139   0.375000000000000   1.0000000
N2   N   0.888205980219489   0.610195244564619   0.375000000000000   1.0000000
N2   N   0.722129913551346   0.111002093007483   0.375000000000000   1.0000000
N2   N   0.055462005366134   0.777582739165846   0.875000000000000   1.0000000
N2   N   0.388787400466376   0.777582739165846   0.875000000000000   1.0000000
N2   N   0.222133002040518   0.277595870027439   0.875000000000000   1.0000000
N2   N   0.722115617830562   0.777564568994459   0.875000000000000   1.0000000
N2   N   0.555474421100222   0.277599360932465   0.875000000000000   1.0000000
N2   N   0.888808046806279   0.277597489789155   0.875000000000000   1.0000000
N2   N   0.222240472799784   0.777814278932905   0.375000000000000   1.0000000
N2   N   0.055576653025198   0.277796905317219   0.375000000000000   1.0000000
N2   N   0.388625047071740   0.279163848617966   0.375000000000000   1.0000000
N2   N   0.555369512800442   0.777765999904043   0.375000000000000   1.0000000
N2   N   0.889063153770265   0.777765999904043   0.375000000000000   1.0000000
N2   N   0.722294017420522   0.277507370538035   0.375000000000000   1.0000000
N2   N   0.055457977040691   0.944255104042597   0.875000000000000   1.0000000
N2   N   0.388792034588367   0.944269356514625   0.875000000000000   1.0000000
N2   N   0.222130659163474   0.444264865455759   0.875000000000000   1.0000000
N2   N   0.555472567785983   0.444278468905294   0.875000000000000   1.0000000
N2   N   0.722112780797264   0.944244420655134   0.875000000000000   1.0000000
N2   N   0.888800872958949   0.444264865455759   0.875000000000000   1.0000000
N2   N   0.055545008231697   0.444423349796722   0.375000000000000   1.0000000
N2   N   0.222480419375197   0.944706380934914   0.375000000000000   1.0000000
N2   N   0.555365797438264   0.944477634421548   0.375000000000000   1.0000000
N2   N   0.390067264896295   0.442626842026445   0.375000000000000   1.0000000
N2   N   0.888906007796626   0.944323008785270   0.375000000000000   1.0000000
N2   N   0.719226243796815   0.442626842026445   0.375000000000000   1.0000000
N2   N   0.222134188896878   0.610923688748155   0.875000000000000   1.0000000
N2   N   0.055456267256669   0.110908754885635   0.875000000000000   1.0000000
N2   N   0.555464428387524   0.610921009151476   0.875000000000000   1.0000000
N2   N   0.388799629940095   0.110932593213533   0.875000000000000   1.0000000
N2   N   0.888804288635484   0.610920302247508   0.875000000000000   1.0000000
N2   N   0.055580979332861   0.611108800914830   0.375000000000000   1.0000000
N2   N   0.722119154295631   0.110908754885635   0.875000000000000   1.0000000
N2   N   0.222587643030188   0.111278119328757   0.375000000000000   1.0000000
N2   N   0.388655931011787   0.610195244564619   0.375000000000000   1.0000000
N2   N   0.722503410186778   0.611404069780171   0.375000000000000   1.0000000
N2   N   0.555357142965233   0.111278119328757   0.375000000000000   1.0000000
N2   N   0.388782680278680   0.610920302247508   0.875000000000000   1.0000000
N2   N   0.888872251670685   0.111077836674711   0.375000000000000   1.0000000
N2   N   0.222133632570367   0.777600598474069   0.875000000000000   1.0000000
N2   N   0.055456109649540   0.277597489789155   0.875000000000000   1.0000000
N2   N   0.388791606498908   0.277599360932465   0.875000000000000   1.0000000
N2   N   0.555453549182766   0.777587076807547   0.875000000000000   1.0000000
N2   N   0.888800194291444   0.777587076807547   0.875000000000000   1.0000000
N2   N   0.722129534653585   0.277595870027439   0.875000000000000   1.0000000
N2   N   0.055413349613573   0.777498542277674   0.375000000000000   1.0000000
N2   N   0.388751859330765   0.777498542277674   0.375000000000000   1.0000000
N2   N   0.221880019784177   0.277507370538035   0.375000000000000   1.0000000
N2   N   0.722189642405267   0.777712618143870   0.375000000000000   1.0000000
N2   N   0.557205468212890   0.279163848617966   0.375000000000000   1.0000000
N2   N   0.888886918958685   0.277796905317219   0.375000000000000   1.0000000
N2   N   0.055459457530449   0.444252248394227   0.875000000000000   1.0000000
N2   N   0.222143988592922   0.944269356514625   0.875000000000000   1.0000000
N2   N   0.555463793668578   0.944255104042597   0.875000000000000   1.0000000
N2   N   0.388792705102935   0.444256537872727   0.875000000000000   1.0000000
N2   N   0.888798306524535   0.944244420655134   0.875000000000000   1.0000000
N2   N   0.055778503649955   0.944477634421548   0.375000000000000   1.0000000
N2   N   0.722130499436456   0.444256537872727   0.875000000000000   1.0000000
N2   N   0.388892628226381   0.944706380934914   0.375000000000000   1.0000000
N2   N   0.222944160872433   0.444510891736703   0.375000000000000   1.0000000
N2   N   0.222194488248634   0.611108800914830   0.375000000000000   1.0000000
N2   N   0.722083667655309   0.944323008785270   0.375000000000000   1.0000000
N2   N   0.888233397530934   0.444510891736703   0.375000000000000   1.0000000
N2   N   0.055456166517941   0.610923688748155   0.875000000000000   1.0000000
N2   N   0.222133011741464   0.110930047273619   0.875000000000000   1.0000000
N2   N   0.722123247430616   0.610921009151476   0.875000000000000   1.0000000
N2   N   0.555463702198818   0.110930047273619   0.875000000000000   1.0000000
N2   N   0.888794227082792   0.110921787498927   0.875000000000000   1.0000000
B2   B   0.111675133940787   0.055898658318536   0.375000000000000   1.0000000
B2   B   0.611293551350465   0.555920436034259   0.375000000000000   1.0000000
B2   B   0.444556248221675   0.056264289163967   0.375000000000000   1.0000000
B2   B   0.944165235258940   0.555330823908699   0.375000000000000   1.0000000
B2   B   0.777647784421862   0.055616360395074   0.375000000000000   1.0000000
B2   B   0.110919422793520   0.721932379453186   0.875000000000000   1.0000000
B2   B   0.444250341358160   0.721910070437242   0.875000000000000   1.0000000
B2   B   0.277706691904390   0.222029491926503   0.875000000000000   1.0000000
B2   B   0.777570505570069   0.721894803180435   0.875000000000000   1.0000000
B2   B   0.610989466688784   0.222029491926503   0.875000000000000   1.0000000
B2   B   0.944334379097823   0.222002091528982   0.875000000000000   1.0000000
B2   B   0.277705117226527   0.722077902196843   0.375000000000000   1.0000000
B2   B   0.111637198120682   0.222394697569285   0.375000000000000   1.0000000
B2   B   0.445671160458845   0.224675654251025   0.375000000000000   1.0000000
B2   B   0.610815428171113   0.721959980737042   0.375000000000000   1.0000000
B2   B   0.943897075603679   0.721314452255551   0.375000000000000   1.0000000
B2   B   0.777424166115275   0.222394697569285   0.375000000000000   1.0000000
B2   B   0.110968400661062   0.888595909519457   0.875000000000000   1.0000000
B2   B   0.444294175525067   0.888595909519457   0.875000000000000   1.0000000
B2   B   0.277718457938678   0.388615607938009   0.875000000000000   1.0000000
B2   B   0.611002438084398   0.388637290601934   0.875000000000000   1.0000000
B2   B   0.777615435364927   0.888564204063183   0.875000000000000   1.0000000
B2   B   0.944335106690311   0.388614526566157   0.875000000000000   1.0000000
B2   B   0.111646187277682   0.388989378059930   0.375000000000000   1.0000000
B2   B   0.277823445557028   0.888980224447386   0.375000000000000   1.0000000
B2   B   0.610907941706592   0.888792940996409   0.375000000000000   1.0000000
B2   B   0.944551665956488   0.888792940996409   0.375000000000000   1.0000000
B2   B   0.776235360329326   0.388993839875886   0.375000000000000   1.0000000
B2   B   0.277667944538586   0.555296071276313   0.875000000000000   1.0000000
B2   B   0.110951555677263   0.055292597030593   0.875000000000000   1.0000000
B2   B   0.610972626543504   0.555278586420336   0.875000000000000   1.0000000
B2   B   0.444283251008729   0.055326945539367   0.875000000000000   1.0000000
B2   B   0.944294793404392   0.555296071276313   0.875000000000000   1.0000000
B2   B   0.111067945645113   0.555469224623554   0.375000000000000   1.0000000
B2   B   0.777587411718692   0.055278066452302   0.875000000000000   1.0000000
B2   B   0.278374707608956   0.056264289163967   0.375000000000000   1.0000000
B2   B   0.444242682004252   0.553684550551008   0.375000000000000   1.0000000
B2   B   0.776108535213420   0.553684550551008   0.375000000000000   1.0000000
B2   B   0.610890191044419   0.055898658318536   0.375000000000000   1.0000000
B2   B   0.444301879281829   0.555228454583158   0.875000000000000   1.0000000
B2   B   0.944635242639876   0.055616360395074   0.375000000000000   1.0000000
B2   B   0.277679623326337   0.721932379453186   0.875000000000000   1.0000000
B2   B   0.110995958508555   0.221946734087867   0.875000000000000   1.0000000
B2   B   0.444332130545009   0.221997594423355   0.875000000000000   1.0000000
B2   B   0.610990964277037   0.721894803180435   0.875000000000000   1.0000000
B2   B   0.944326395745746   0.721910070437242   0.875000000000000   1.0000000
B2   B   0.777617442245984   0.221946734087867   0.875000000000000   1.0000000
B2   B   0.111039451636987   0.722077902196843   0.375000000000000   1.0000000
B2   B   0.444084043318536   0.721314452255551   0.375000000000000   1.0000000
B2   B   0.278934378859263   0.223045825588192   0.375000000000000   1.0000000
B2   B   0.777811219232600   0.721959980737042   0.375000000000000   1.0000000
B2   B   0.610778113395600   0.223045825588192   0.375000000000000   1.0000000
B2   B   0.944507824336534   0.222348982006402   0.375000000000000   1.0000000
B2   B   0.110946086542517   0.388614526566157   0.875000000000000   1.0000000
B2   B   0.277670867301948   0.888675067937225   0.875000000000000   1.0000000
B2   B   0.610973965256521   0.888629401626679   0.875000000000000   1.0000000
B2   B   0.444301519184207   0.388637290601934   0.875000000000000   1.0000000
B2   B   0.944322103036830   0.888629401626679   0.875000000000000   1.0000000
B2   B   0.111153304055933   0.888788044878990   0.375000000000000   1.0000000
B2   B   0.777563816666002   0.388615607938009   0.875000000000000   1.0000000
B2   B   0.444301407489728   0.888788044878990   0.375000000000000   1.0000000
B2   B   0.279425146213231   0.388993839875886   0.375000000000000   1.0000000
B2   B   0.277832255316424   0.555330823908699   0.375000000000000   1.0000000
B2   B   0.777666885322452   0.888667103978232   0.375000000000000   1.0000000
B2   B   0.944009857448919   0.388989378059930   0.375000000000000   1.0000000
B2   B   0.110958074968953   0.555249483271233   0.875000000000000   1.0000000
B2   B   0.277710361197303   0.055326945539367   0.875000000000000   1.0000000
B2   B   0.777593241967993   0.555228454583158   0.875000000000000   1.0000000
B2   B   0.611007708020001   0.055292597030593   0.875000000000000   1.0000000
B2   B   0.944357321400275   0.055278066452302   0.875000000000000   1.0000000
B2   B   0.055638141595033   0.111329603024690   0.125026056168688   1.0000000
B2   B   0.555667254205840   0.611106472045331   0.125147850785871   1.0000000
B2   B   0.389074414729694   0.111482162792731   0.125149424951952   1.0000000
B2   B   0.888822490820309   0.611191436921627   0.125114026489543   1.0000000
B2   B   0.722358128096321   0.111329603024690   0.125026056168688   1.0000000
B2   B   0.055595325888973   0.777945267563787   0.624978150652528   1.0000000
B2   B   0.389016608341477   0.777945267563787   0.624978150652528   1.0000000
B2   B   0.222360566436064   0.277964270633452   0.624890374228636   1.0000000
B2   B   0.722276660266427   0.777886653866189   0.624966389994927   1.0000000
B2   B   0.555731648817655   0.278075085708739   0.624608137353166   1.0000000
B2   B   0.888989075283150   0.277947683994312   0.624965385490425   1.0000000
B2   B   0.222338398861589   0.778010131056514   0.125034005018648   1.0000000
B2   B   0.055625275377826   0.277947683994312   0.125034614509576   1.0000000
B2   B   0.389010103557749   0.278075085708739   0.125391862646834   1.0000000
B2   B   0.555693911931965   0.777939389069215   0.125042666924659   1.0000000
B2   B   0.888912143803915   0.777939389069215   0.125042666924659   1.0000000
B2   B   0.722270370864052   0.277964270633452   0.125109625771365   1.0000000
B2   B   0.055624093819247   0.944689350580214   0.624980856169730   1.0000000
B2   B   0.389026771987493   0.944749205943602   0.624974951927206   1.0000000
B2   B   0.222393816619909   0.444586062478997   0.624862395702495   1.0000000
B2   B   0.555542210038943   0.444417753411215   0.624029002396003   1.0000000
B2   B   0.722310026742898   0.944645985653183   0.624984772306028   1.0000000
B2   B   0.888858912525753   0.444586062478997   0.624862395702495   1.0000000
B2   B   0.055626631142407   0.444586595618143   0.125039617002492   1.0000000
B2   B   0.222389100622774   0.944749205943602   0.125025048072794   1.0000000
B2   B   0.555731923427638   0.944689350580214   0.125019143830270   1.0000000
B2   B   0.389061261469193   0.444464443144679   0.125369920597395   1.0000000
B2   B   0.889002625576949   0.944645985653183   0.125015227693972   1.0000000
B2   B   0.722069848342150   0.444464443144679   0.125369920597395   1.0000000
B2   B   0.222378883400696   0.611266024827874   0.624965980214037   1.0000000
B2   B   0.055638141595033   0.111329603024690   0.624973943831313   1.0000000
B2   B   0.555667254205840   0.611106472045331   0.624852149214129   1.0000000
B2   B   0.389074414729694   0.111482162792731   0.624850575048047   1.0000000
B2   B   0.888822490820309   0.611191436921627   0.624885973510458   1.0000000
B2   B   0.055553808093843   0.611266024827874   0.125034019785963   1.0000000
B2   B   0.722358128096321   0.111329603024690   0.624973943831313   1.0000000
B2   B   0.222362011220894   0.111452281086552   0.125106302745075   1.0000000
B2   B   0.389035612767974   0.611191436921627   0.125114026489543   1.0000000
B2   B   0.722105884506156   0.611106472045331   0.125147850785871   1.0000000
B2   B   0.555756936532322   0.111452281086552   0.125106302745075   1.0000000
B2   B   0.389035612767974   0.611191436921627   0.624885973510458   1.0000000
B2   B   0.888999935582892   0.111333204499127   0.125028666164269   1.0000000
B2   B   0.222338398861589   0.778010131056514   0.624965994981352   1.0000000
B2   B   0.055625275377826   0.277947683994312   0.624965385490425   1.0000000
B2   B   0.389010103557749   0.278075085708739   0.624608137353166   1.0000000
B2   B   0.555693911931965   0.777939389069215   0.624957333075341   1.0000000
B2   B   0.888912143803915   0.777939389069215   0.624957333075341   1.0000000
B2   B   0.722270370864052   0.277964270633452   0.624890374228636   1.0000000
B2   B   0.055595325888973   0.777945267563787   0.125021849347472   1.0000000
B2   B   0.389016608341477   0.777945267563787   0.125021849347472   1.0000000
B2   B   0.222360566436064   0.277964270633452   0.125109625771365   1.0000000
B2   B   0.722276660266427   0.777886653866189   0.125033610005072   1.0000000
B2   B   0.555731648817655   0.278075085708739   0.125391862646834   1.0000000
B2   B   0.888989075283150   0.277947683994312   0.125034614509576   1.0000000
B2   B   0.055626631142407   0.444586595618143   0.624960382997508   1.0000000
B2   B   0.222389100622774   0.944749205943602   0.624974951927206   1.0000000
B2   B   0.555731923427638   0.944689350580214   0.624980856169730   1.0000000
B2   B   0.389061261469193   0.444464443144679   0.624630079402605   1.0000000
B2   B   0.889002625576949   0.944645985653183   0.624984772306028   1.0000000
B2   B   0.055624093819247   0.944689350580214   0.125019143830270   1.0000000
B2   B   0.722069848342150   0.444464443144679   0.624630079402605   1.0000000
B2   B   0.389026771987493   0.944749205943602   0.125025048072794   1.0000000
B2   B   0.222393816619909   0.444586062478997   0.125137604297505   1.0000000
B2   B   0.222378883400696   0.611266024827874   0.125034019785963   1.0000000
B2   B   0.555542210038943   0.444417753411215   0.125970997603996   1.0000000
B2   B   0.722310026742898   0.944645985653183   0.125015227693972   1.0000000
B2   B   0.888858912525753   0.444586062478997   0.125137604297505   1.0000000
B2   B   0.055553808093843   0.611266024827874   0.624965980214037   1.0000000
B2   B   0.222362011220894   0.111452281086552   0.624893697254925   1.0000000
B2   B   0.722105884506156   0.611106472045331   0.624852149214129   1.0000000
B2   B   0.555756936532322   0.111452281086552   0.624893697254925   1.0000000
B2   B   0.888999935582892   0.111333204499127   0.624971333835731   1.0000000


