data_1
_audit_creation_method   'vasp2cif'
_cell_length_a    14.93631414619966
_cell_length_b    14.936314146199727
_cell_length_c    13.341276283792837
_cell_angle_alpha    90.0
_cell_angle_beta    90.0
_cell_angle_gamma    119.99999999999984

_symmetry_space_group_name_H-M    'P 1'
loop_
_atom_site_label
_atom_site_type_symbol
_atom_site_fract_x
_atom_site_fract_y
_atom_site_fract_z
_atom_site_occupancy
In2   In   0.492104064439458   0.412718698886394   0.375000000000000   1.0000000
N2   N   0.111158324766604   0.055573617827472   0.124836640909890   1.0000000
N2   N   0.611182622533223   0.555630861819277   0.124439604445149   1.0000000
N2   N   0.444487843605892   0.055544595427645   0.124884540101161   1.0000000
N2   N   0.944471477092850   0.555568573881352   0.125077645811524   1.0000000
N2   N   0.777826591893343   0.055579962613339   0.124951962153609   1.0000000
N2   N   0.111134650509754   0.722233991921541   0.625000375229333   1.0000000
N2   N   0.444487843605892   0.722276581511583   0.625115459898840   1.0000000
N2   N   0.277845559327084   0.222243088876838   0.624988769924882   1.0000000
N2   N   0.777824626905810   0.722260592420863   0.625060015354656   1.0000000
N2   N   0.611157003520861   0.222201599955712   0.625224594591926   1.0000000
N2   N   0.944498057940099   0.222247783095532   0.625059693102107   1.0000000
N2   N   0.277808087522554   0.722245248545571   0.124976737636882   1.0000000
N2   N   0.111182447697222   0.222257890515276   0.124856722927799   1.0000000
N2   N   0.444521126927210   0.222212926321285   0.124922037705051   1.0000000
N2   N   0.611157003520861   0.722288736898477   0.124775405408074   1.0000000
N2   N   0.944471477092850   0.722236236544834   0.125077645811524   1.0000000
N2   N   0.777823287293626   0.222232788104099   0.124979767878395   1.0000000
N2   N   0.111140481580542   0.888898819318675   0.625024915388441   1.0000000
N2   N   0.444482330023319   0.888907831678323   0.625010098041339   1.0000000
N2   N   0.277845559327084   0.388935803783575   0.624988769924882   1.0000000
N2   N   0.611182622533223   0.388885094047274   0.625560395554851   1.0000000
N2   N   0.777823287293626   0.888923832522856   0.625020232121605   1.0000000
N2   N   0.944487201100723   0.388905333697137   0.624997428447934   1.0000000
N2   N   0.111158324766604   0.388918040272461   0.124836640909890   1.0000000
N2   N   0.277808087522554   0.888896172310311   0.124976737636882   1.0000000
N2   N   0.611156063134056   0.888930818167471   0.124957736186368   1.0000000
N2   N   0.444640051912249   0.388986692622789   0.127907781770922   1.0000000
N2   N   0.944487201100723   0.888915200736914   0.125002571552067   1.0000000
N2   N   0.777824626905810   0.388897367818276   0.124939984645344   1.0000000
N2   N   0.277821809614794   0.555596719549923   0.625098512057835   1.0000000
N2   N   0.111158324766604   0.055573617827472   0.625163359090110   1.0000000
N2   N   0.611182622533223   0.555630861819277   0.625560395554850   1.0000000
N2   N   0.444487843605892   0.055544595427645   0.625115459898840   1.0000000
N2   N   0.944471477092850   0.555568573881352   0.624922354188476   1.0000000
N2   N   0.111140481580542   0.555574995595195   0.124975084611559   1.0000000
N2   N   0.777826591893343   0.055579962613339   0.625048037846392   1.0000000
N2   N   0.277821809614794   0.055558423398206   0.124901487942165   1.0000000
N2   N   0.444521126927210   0.555641533939260   0.124922037705051   1.0000000
N2   N   0.777803349307295   0.555568341320315   0.124961124240090   1.0000000
N2   N   0.611156063134056   0.055558578299913   0.124957736186368   1.0000000
N2   N   0.444521126927210   0.555641533939261   0.625077962294948   1.0000000
N2   N   0.944498057940099   0.055583608177903   0.124940306897893   1.0000000
N2   N   0.277808087522554   0.722245248545571   0.625023262363118   1.0000000
N2   N   0.111182447697222   0.222257890515276   0.625143277072201   1.0000000
N2   N   0.444521126927210   0.222212926321285   0.625077962294948   1.0000000
N2   N   0.611157003520861   0.722288736898477   0.625224594591926   1.0000000
N2   N   0.944471477092850   0.722236236544834   0.624922354188476   1.0000000
N2   N   0.777823287293626   0.222232788104099   0.625020232121605   1.0000000
N2   N   0.111134650509754   0.722233991921541   0.124999624770667   1.0000000
N2   N   0.444487843605892   0.722276581511583   0.124884540101161   1.0000000
N2   N   0.277845559327084   0.222243088876838   0.125011230075118   1.0000000
N2   N   0.777824626905810   0.722260592420863   0.124939984645344   1.0000000
N2   N   0.611157003520861   0.222201599955712   0.124775405408074   1.0000000
N2   N   0.944498057940099   0.222247783095532   0.124940306897893   1.0000000
N2   N   0.111158324766604   0.388918040272461   0.625163359090110   1.0000000
N2   N   0.277808087522554   0.888896172310311   0.625023262363118   1.0000000
N2   N   0.611156063134056   0.888930818167471   0.625042263813632   1.0000000
N2   N   0.444640051912249   0.388986692622789   0.622092218229078   1.0000000
N2   N   0.944487201100723   0.888915200736914   0.624997428447934   1.0000000
N2   N   0.111140481580542   0.888898819318675   0.124975084611559   1.0000000
N2   N   0.777824626905810   0.388897367818276   0.625060015354656   1.0000000
N2   N   0.444482330023319   0.888907831678323   0.124989901958660   1.0000000
N2   N   0.277845559327084   0.388935803783575   0.125011230075118   1.0000000
N2   N   0.277821809614794   0.555596719549923   0.124901487942165   1.0000000
N2   N   0.611182622533223   0.388885094047274   0.124439604445149   1.0000000
N2   N   0.777823287293626   0.888923832522856   0.124979767878395   1.0000000
N2   N   0.944487201100723   0.388905333697137   0.125002571552067   1.0000000
N2   N   0.111140481580542   0.555574995595195   0.625024915388441   1.0000000
N2   N   0.277821809614794   0.055558423398206   0.625098512057835   1.0000000
N2   N   0.777803349307295   0.555568341320315   0.625038875759910   1.0000000
N2   N   0.611156063134056   0.055558578299913   0.625042263813632   1.0000000
N2   N   0.944498057940099   0.055583608177903   0.625059693102107   1.0000000
N2   N   0.056631939956570   0.111755254308333   0.375000000000000   1.0000000
N2   N   0.555074419067357   0.620956452255140   0.375000000000000   1.0000000
N2   N   0.386208276466481   0.102408095747774   0.375000000000000   1.0000000
N2   N   0.885368248206719   0.609350790770032   0.375000000000000   1.0000000
N2   N   0.723033985475552   0.110419426815826   0.375000000000000   1.0000000
N2   N   0.055555449414979   0.777779528099646   0.875000000000000   1.0000000
N2   N   0.388895731456327   0.777779787265581   0.875000000000000   1.0000000
N2   N   0.222226049658043   0.277779691495689   0.875000000000000   1.0000000
N2   N   0.722229422059143   0.777781585865322   0.875000000000000   1.0000000
N2   N   0.555563663355315   0.277783295295229   0.875000000000000   1.0000000
N2   N   0.888893713575041   0.277779876853043   0.875000000000000   1.0000000
N2   N   0.219098862985042   0.776216098159188   0.375000000000000   1.0000000
N2   N   0.056631939956570   0.278210018981573   0.375000000000000   1.0000000
N2   N   0.384644672642725   0.261999626989777   0.375000000000000   1.0000000
N2   N   0.554961057178665   0.782190670613756   0.375000000000000   1.0000000
N2   N   0.888426118540683   0.778511876480373   0.375000000000000   1.0000000
N2   N   0.722989526589769   0.275280574919304   0.375000000000000   1.0000000
N2   N   0.055556715847029   0.944446646818856   0.875000000000000   1.0000000
N2   N   0.388895731456327   0.944449277524080   0.875000000000000   1.0000000
N2   N   0.222225711645735   0.444443058459711   0.875000000000000   1.0000000
N2   N   0.555552842258968   0.444443087796148   0.875000000000000   1.0000000
N2   N   0.722226160504064   0.944446730721940   0.875000000000000   1.0000000
N2   N   0.888894088054453   0.444445234414023   0.875000000000000   1.0000000
N2   N   0.054262771021421   0.444333230589054   0.375000000000000   1.0000000
N2   N   0.219213136684051   0.941020425956113   0.375000000000000   1.0000000
N2   N   0.554923668619156   0.944128500976242   0.375000000000000   1.0000000
N2   N   0.384644672642725   0.455978378986283   0.375000000000000   1.0000000
N2   N   0.889771136284164   0.945797769181439   0.375000000000000   1.0000000
N2   N   0.722250114760533   0.441437062612115   0.375000000000000   1.0000000
N2   N   0.222225482246625   0.611109214949356   0.875000000000000   1.0000000
N2   N   0.055556723401115   0.111111652426083   0.875000000000000   1.0000000
N2   N   0.555563663355315   0.611113701393423   0.875000000000000   1.0000000
N2   N   0.388898237652700   0.111121600038343   0.875000000000000   1.0000000
N2   N   0.888890021613240   0.611111677473291   0.875000000000000   1.0000000
N2   N   0.052521102322116   0.610023515229954   0.375000000000000   1.0000000
N2   N   0.722226160504064   0.111112763115461   0.875000000000000   1.0000000
N2   N   0.219875262537882   0.107322356572478   0.375000000000000   1.0000000
N2   N   0.386208276466481   0.617133514052049   0.375000000000000   1.0000000
N2   N   0.722250114760533   0.614146385481754   0.375000000000000   1.0000000
N2   N   0.554961057178665   0.106103719898245   0.375000000000000   1.0000000
N2   N   0.388898237652700   0.611109970947701   0.875000000000000   1.0000000
N2   N   0.890150478980055   0.111741906156699   0.375000000000000   1.0000000
N2   N   0.222224909423616   0.777779121378476   0.875000000000000   1.0000000
N2   N   0.055556723401115   0.277778404308368   0.875000000000000   1.0000000
N2   N   0.388901564300287   0.277794225595180   0.875000000000000   1.0000000
N2   N   0.555561963985445   0.777781144542738   0.875000000000000   1.0000000
N2   N   0.888894088054453   0.777782186973767   0.875000000000000   1.0000000
N2   N   0.722229422059143   0.277781169527158   0.875000000000000   1.0000000
N2   N   0.052521102322116   0.775830920425497   0.375000000000000   1.0000000
N2   N   0.386557365624510   0.778855482693923   0.375000000000000   1.0000000
N2   N   0.224466743213201   0.278900038273268   0.375000000000000   1.0000000
N2   N   0.722989526589769   0.781042285003801   0.375000000000000   1.0000000
N2   N   0.555074419067357   0.267451300145552   0.375000000000000   1.0000000
N2   N   0.889771136284164   0.277306700436061   0.375000000000000   1.0000000
N2   N   0.055556715847029   0.444443402361500   0.875000000000000   1.0000000
N2   N   0.222225482246625   0.944449600630605   0.875000000000000   1.0000000
N2   N   0.555559788860327   0.944446561096828   0.875000000000000   1.0000000
N2   N   0.388901564300287   0.444440672038442   0.875000000000000   1.0000000
N2   N   0.888893713575041   0.944447170055334   0.875000000000000   1.0000000
N2   N   0.054262771021421   0.943262873765696   0.375000000000000   1.0000000
N2   N   0.722227408649054   0.444446753672575   0.875000000000000   1.0000000
N2   N   0.386557365624510   0.941035216263923   0.375000000000000   1.0000000
N2   N   0.219875262537882   0.445886239298740   0.375000000000000   1.0000000
N2   N   0.219213136684051   0.611526044061274   0.375000000000000   1.0000000
N2   N   0.723033985475551   0.945947891993061   0.375000000000000   1.0000000
N2   N   0.888426118540683   0.443247575393645   0.375000000000000   1.0000000
N2   N   0.055555449414979   0.611109254648668   0.875000000000000   1.0000000
N2   N   0.222225711645735   0.111115986519359   0.875000000000000   1.0000000
N2   N   0.722227408649054   0.611113988309815   0.875000000000000   1.0000000
N2   N   0.555561963985445   0.111114152776044   0.875000000000000   1.0000000
N2   N   0.888892630007761   0.111112981670552   0.875000000000000   1.0000000
B2   B   0.110161816192473   0.054184042673938   0.375000000000000   1.0000000
B2   B   0.614643006409239   0.572589159862987   0.375000000000000   1.0000000
B2   B   0.443346292823250   0.050405399023107   0.375000000000000   1.0000000
B2   B   0.941874216890871   0.554234070305694   0.375000000000000   1.0000000
B2   B   0.779339549697774   0.056336441515555   0.375000000000000   1.0000000
B2   B   0.111121506724422   0.722227420028876   0.875000000000000   1.0000000
B2   B   0.444441874098503   0.722222435160081   0.875000000000000   1.0000000
B2   B   0.277751246706943   0.222212908365283   0.875000000000000   1.0000000
B2   B   0.777798617809516   0.722252638656184   0.875000000000000   1.0000000
B2   B   0.611118555469097   0.222207224554699   0.875000000000000   1.0000000
B2   B   0.944460064404826   0.222222831052647   0.875000000000000   1.0000000
B2   B   0.275329882671040   0.722063820072777   0.375000000000000   1.0000000
B2   B   0.113561074849647   0.223447204091488   0.375000000000000   1.0000000
B2   B   0.440963048767119   0.211270387801657   0.375000000000000   1.0000000
B2   B   0.612059591403421   0.729977635080906   0.375000000000000   1.0000000
B2   B   0.941874216890871   0.720973479918513   0.375000000000000   1.0000000
B2   B   0.779163059636340   0.220983960367826   0.375000000000000   1.0000000
B2   B   0.111119784283045   0.888905650402996   0.875000000000000   1.0000000
B2   B   0.444445949068511   0.888889641200920   0.875000000000000   1.0000000
B2   B   0.277751246706943   0.388871671674987   0.875000000000000   1.0000000
B2   B   0.611120006372829   0.388869117811265   0.875000000000000   1.0000000
B2   B   0.777795337375525   0.888913380954283   0.875000000000000   1.0000000
B2   B   0.944462939031170   0.388881313709774   0.875000000000000   1.0000000
B2   B   0.110161816192473   0.389311106851863   0.375000000000000   1.0000000
B2   B   0.275329882671040   0.886599395931592   0.375000000000000   1.0000000
B2   B   0.611860251752422   0.891496818329869   0.375000000000000   1.0000000
B2   B   0.944163524643835   0.889372182009424   0.375000000000000   1.0000000
B2   B   0.778530571731089   0.386394236696433   0.375000000000000   1.0000000
B2   B   0.277770574262602   0.555542551167201   0.875000000000000   1.0000000
B2   B   0.111114560320046   0.055568233430699   0.875000000000000   1.0000000
B2   B   0.611120006372829   0.555584221894892   0.875000000000000   1.0000000
B2   B   0.444441874098503   0.055552772271759   0.875000000000000   1.0000000
B2   B   0.944463527576259   0.555555453591018   0.875000000000000   1.0000000
B2   B   0.108611602484506   0.555149215256147   0.375000000000000   1.0000000
B2   B   0.777793373721734   0.055563353527535   0.875000000000000   1.0000000
B2   B   0.275192983416240   0.051504207674777   0.375000000000000   1.0000000
B2   B   0.440963048767119   0.563025994298796   0.375000000000000   1.0000000
B2   B   0.774479082467545   0.553906207900440   0.375000000000000   1.0000000
B2   B   0.611860251752422   0.053696766755883   0.375000000000000   1.0000000
B2   B   0.444430113860819   0.555555204049982   0.875000000000000   1.0000000
B2   B   0.946020601029165   0.056818724613706   0.375000000000000   1.0000000
B2   B   0.277779451194153   0.722218352860533   0.875000000000000   1.0000000
B2   B   0.111109960828019   0.222221647080674   0.875000000000000   1.0000000
B2   B   0.444430113860819   0.222208243144174   0.875000000000000   1.0000000
B2   B   0.611118555469097   0.722244664247726   0.875000000000000   1.0000000
B2   B   0.944463527576259   0.722241407318577   0.875000000000000   1.0000000
B2   B   0.777795337375525   0.222215289754570   0.875000000000000   1.0000000
B2   B   0.108242565505831   0.720787949419581   0.375000000000000   1.0000000
B2   B   0.443346292823250   0.726274227133479   0.375000000000000   1.0000000
B2   B   0.277499003815832   0.219008996052341   0.375000000000000   1.0000000
B2   B   0.778530571731089   0.725469668367985   0.375000000000000   1.0000000
B2   B   0.612059591403421   0.215415289655843   0.375000000000000   1.0000000
B2   B   0.946020601029165   0.222535209748794   0.375000000000000   1.0000000
B2   B   0.111114560320046   0.388879660222676   0.875000000000000   1.0000000
B2   B   0.277779451194153   0.888894431666948   0.875000000000000   1.0000000
B2   B   0.611118493982825   0.888899216944643   0.875000000000000   1.0000000
B2   B   0.444403590259192   0.388868461796260   0.875000000000000   1.0000000
B2   B   0.944462939031170   0.888914958654725   0.875000000000000   1.0000000
B2   B   0.108611602484506   0.886795720561689   0.375000000000000   1.0000000
B2   B   0.777798617809516   0.388879312486658   0.875000000000000   1.0000000
B2   B   0.443473596877337   0.888403465105333   0.375000000000000   1.0000000
B2   B   0.277499003815832   0.391823341096821   0.375000000000000   1.0000000
B2   B   0.275192983416240   0.557022109074798   0.375000000000000   1.0000000
B2   B   0.614643006409239   0.375387179879581   0.375000000000000   1.0000000
B2   B   0.779163059636340   0.891512432601844   0.375000000000000   1.0000000
B2   B   0.944163524643835   0.388124675967740   0.375000000000000   1.0000000
B2   B   0.111119784283045   0.555547467213378   0.875000000000000   1.0000000
B2   B   0.277770574262602   0.055561356428736   0.875000000000000   1.0000000
B2   B   0.777797177098861   0.555565255216099   0.875000000000000   1.0000000
B2   B   0.611118493982825   0.055552610371512   0.875000000000000   1.0000000
B2   B   0.944460064404826   0.055570566685515   0.875000000000000   1.0000000
B2   B   0.055646457543561   0.111172599751343   0.124985081744674   1.0000000
B2   B   0.555527952580455   0.611245797666964   0.124630244564018   1.0000000
B2   B   0.388871300509938   0.111032278021130   0.124979468571226   1.0000000
B2   B   0.889003803031485   0.611168568182412   0.125002494667435   1.0000000
B2   B   0.722264951008022   0.111103615777404   0.124982827980112   1.0000000
B2   B   0.055637636967018   0.777833232039748   0.624982271327642   1.0000000
B2   B   0.388905011513570   0.777805375534446   0.625012764225112   1.0000000
B2   B   0.222288412362537   0.277810872847936   0.624743625066085   1.0000000
B2   B   0.722270217587562   0.777873215162520   0.625130614852226   1.0000000
B2   B   0.555527952580455   0.277615488246828   0.625369755435982   1.0000000
B2   B   0.888966595153802   0.277780201001397   0.624998791754929   1.0000000
B2   B   0.222268673647725   0.777801003490530   0.125002019291914   1.0000000
B2   B   0.055646457543561   0.277807191125554   0.124985081744674   1.0000000
B2   B   0.388758252727045   0.277509219730867   0.126257423183415   1.0000000
B2   B   0.555560516011081   0.777849835731728   0.124905974921019   1.0000000
B2   B   0.888987547444833   0.777869855820745   0.124995831692778   1.0000000
B2   B   0.722270217587562   0.277730335758380   0.124869385147774   1.0000000
B2   B   0.055637442796190   0.944517344848241   0.625010869138365   1.0000000
B2   B   0.388905011513570   0.944432969312461   0.625012764225112   1.0000000
B2   B   0.222270323360353   0.444468811075381   0.624961709115802   1.0000000
B2   B   0.555795711029502   0.444564522181415   0.625287934797076   1.0000000
B2   B   0.722264951008022   0.944494668563953   0.625017172019887   1.0000000
B2   B   0.888987547444833   0.444451024957422   0.625004168307222   1.0000000
B2   B   0.055637442796190   0.444453431281277   0.124989130861636   1.0000000
B2   B   0.222266750540971   0.944473217663587   0.125002134200916   1.0000000
B2   B   0.555576856179634   0.944455094756481   0.124996936219160   1.0000000
B2   B   0.388758252727045   0.444582366329513   0.126257423183415   1.0000000
B2   B   0.888966595153802   0.944519727485741   0.125001208245072   1.0000000
B2   B   0.722368031808034   0.444467738004860   0.124582307897041   1.0000000
B2   B   0.222266750540971   0.611126866210719   0.624997865799084   1.0000000
B2   B   0.055646457543561   0.111172599751343   0.625014918255326   1.0000000
B2   B   0.555527952580455   0.611245797666964   0.625369755435982   1.0000000
B2   B   0.388871300509938   0.111032278021130   0.625020531428774   1.0000000
B2   B   0.889003803031485   0.611168568182412   0.624997505332565   1.0000000
B2   B   0.055637636967018   0.611137738260607   0.125017728672356   1.0000000
B2   B   0.722264951008022   0.111103615777404   0.625017172019887   1.0000000
B2   B   0.222270323360353   0.111134845618307   0.125038290884197   1.0000000
B2   B   0.388871300509938   0.611172355822151   0.124979468571226   1.0000000
B2   B   0.722368031808034   0.611233627136509   0.124582307897041   1.0000000
B2   B   0.555560516011081   0.111044013612687   0.124905974921019   1.0000000
B2   B   0.388871300509938   0.611172355822151   0.625020531428774   1.0000000
B2   B   0.888963834394415   0.111148583863879   0.124993541397484   1.0000000
B2   B   0.222268673647725   0.777801003490530   0.624997980708085   1.0000000
B2   B   0.055646457543561   0.277807191125554   0.625014918255326   1.0000000
B2   B   0.388758252727045   0.277509219730867   0.623742576816585   1.0000000
B2   B   0.555560516011081   0.777849835731728   0.625094025078980   1.0000000
B2   B   0.888987547444833   0.777869855820745   0.625004168307222   1.0000000
B2   B   0.722270217587562   0.277730335758380   0.625130614852226   1.0000000
B2   B   0.055637636967018   0.777833232039748   0.125017728672356   1.0000000
B2   B   0.388905011513570   0.777805375534446   0.124987235774888   1.0000000
B2   B   0.222288412362537   0.277810872847936   0.125256374933915   1.0000000
B2   B   0.722270217587562   0.777873215162520   0.124869385147774   1.0000000
B2   B   0.555527952580455   0.277615488246828   0.124630244564018   1.0000000
B2   B   0.888966595153802   0.277780201001397   0.125001208245072   1.0000000
B2   B   0.055637442796190   0.444453431281277   0.625010869138365   1.0000000
B2   B   0.222266750540971   0.944473217663587   0.624997865799084   1.0000000
B2   B   0.555576856179634   0.944455094756481   0.625003063780840   1.0000000
B2   B   0.388758252727045   0.444582366329513   0.623742576816585   1.0000000
B2   B   0.888966595153802   0.944519727485741   0.624998791754929   1.0000000
B2   B   0.055637442796190   0.944517344848241   0.124989130861636   1.0000000
B2   B   0.722368031808034   0.444467738004860   0.625417692102958   1.0000000
B2   B   0.388905011513570   0.944432969312461   0.124987235774888   1.0000000
B2   B   0.222270323360353   0.444468811075381   0.125038290884197   1.0000000
B2   B   0.222266750540971   0.611126866210719   0.125002134200916   1.0000000
B2   B   0.555795711029502   0.444564522181415   0.124712065202924   1.0000000
B2   B   0.722264951008022   0.944494668563953   0.124982827980112   1.0000000
B2   B   0.888987547444833   0.444451024957422   0.124995831692778   1.0000000
B2   B   0.055637636967018   0.611137738260607   0.624982271327642   1.0000000
B2   B   0.222270323360353   0.111134845618307   0.624961709115802   1.0000000
B2   B   0.722368031808034   0.611233627136509   0.625417692102958   1.0000000
B2   B   0.555560516011081   0.111044013612687   0.625094025078980   1.0000000
B2   B   0.888963834394415   0.111148583863879   0.625006458602516   1.0000000


