data_1
_audit_creation_method   'vasp2cif'
_cell_length_a    17.52789999999977
_cell_length_b    17.52789999999977
_cell_length_c    15.0
_cell_angle_alpha    90.0
_cell_angle_beta    90.0
_cell_angle_gamma    119.99999999999916

_symmetry_space_group_name_H-M    'P 1'
loop_
_atom_site_label
_atom_site_type_symbol
_atom_site_fract_x
_atom_site_fract_y
_atom_site_fract_z
_atom_site_occupancy
B2   B   0.905605134727400   0.950627288074909   0.110741796259366   1.0000000
B2   B   0.908018205422531   0.094662110282078   0.110775405750689   1.0000000
B2   B   0.908789629543535   0.237764907385369   0.110737992111136   1.0000000
B2   B   0.908611752714936   0.380750676911752   0.110705081768736   1.0000000
B2   B   0.906570339610392   0.523429115710186   0.110751474811827   1.0000000
B2   B   0.903596758808172   0.665453314415385   0.110750110395971   1.0000000
B2   B   0.903321665729224   0.806913956241781   0.110700959883920   1.0000000
B2   B   0.049702113283868   0.953379420790666   0.110696967808356   1.0000000
B2   B   0.051751733387576   0.096814105624860   0.110777461364356   1.0000000
B2   B   0.052434745674200   0.239304972102565   0.110812751555567   1.0000000
B2   B   0.051752866414720   0.381672237239892   0.110769615787076   1.0000000
B2   B   0.049948659840699   0.524466025482589   0.110725421662731   1.0000000
B2   B   0.048295868420961   0.667221663474985   0.110748717094386   1.0000000
B2   B   0.048304846069320   0.810016898516283   0.110710914167305   1.0000000
B2   B   0.192963518848202   0.954699556156960   0.110686562795086   1.0000000
B2   B   0.196256856269619   0.099945797200925   0.110714038355751   1.0000000
B2   B   0.197972091521545   0.243144562221101   0.110780946462012   1.0000000
B2   B   0.196133463767933   0.383564845854093   0.110761351339719   1.0000000
B2   B   0.193079663523534   0.525419984083681   0.110725227992986   1.0000000
B2   B   0.191696521046029   0.668170269889432   0.110730009687802   1.0000000
B2   B   0.191780045162663   0.811153010733904   0.110714580516006   1.0000000
B2   B   0.335673357048038   0.954501697650855   0.110717104219559   1.0000000
B2   B   0.337480682653587   0.098654191945171   0.110730033109704   1.0000000
B2   B   0.344157869099608   0.247525102980807   0.110758705460584   1.0000000
B2   B   0.344869953069680   0.389883081796591   0.110745378847376   1.0000000
B2   B   0.336432469423232   0.527730469895340   0.110687651485323   1.0000000
B2   B   0.334514866930325   0.669196646820086   0.110746444056893   1.0000000
B2   B   0.334691239402655   0.811517361823252   0.110760615093249   1.0000000
B2   B   0.478483900432634   0.953173914581163   0.110752949750994   1.0000000
B2   B   0.479582833770048   0.095900242364264   0.110771641238291   1.0000000
B2   B   0.481374475994683   0.239235916499772   0.110782950098605   1.0000000
B2   B   0.497247491748315   0.394151620820785   0.110812877298209   1.0000000
B2   B   0.476378183063439   0.669241686291409   0.110702815378114   1.0000000
B2   B   0.477361424455281   0.810825894339801   0.110733244354230   1.0000000
B2   B   0.621337551845162   0.951076453942947   0.110732644795581   1.0000000
B2   B   0.622329932644268   0.094284691522725   0.110754562407061   1.0000000
B2   B   0.623185032215064   0.236890884044405   0.110765754829086   1.0000000
B2   B   0.624531329386356   0.378754076316822   0.110757770436682   1.0000000
B2   B   0.603450052830846   0.503592808954056   0.110795072119459   1.0000000
B2   B   0.619228414593767   0.806681469119960   0.110718431305664   1.0000000
B2   B   0.763548992983453   0.950324536774228   0.110743455534789   1.0000000
B2   B   0.765141346771701   0.094040100491666   0.110746049563470   1.0000000
B2   B   0.765894605424300   0.237174403516416   0.110716289428773   1.0000000
B2   B   0.766153695664558   0.380051540330664   0.110717598184238   1.0000000
B2   B   0.762203542460167   0.521552351252065   0.110728009380320   1.0000000
B2   B   0.754812446836570   0.659717508348028   0.110714761361537   1.0000000
B2   B   0.759537725335809   0.804236577265662   0.110722177592865   1.0000000
C2   C   0.613084725821314   0.659611612378278   0.110798048964522   1.0000000
N2   N   0.952932305048360   0.903152378143502   0.110694300737301   1.0000000
N2   N   0.955193350709315   0.046802570442765   0.110760835572342   1.0000000
N2   N   0.956507597660284   0.190282946865471   0.110760766716221   1.0000000
N2   N   0.956392405071101   0.333259038752635   0.110719713543054   1.0000000
N2   N   0.954904850831287   0.476259450830260   0.110705710782127   1.0000000
N2   N   0.952671783608273   0.618930447080340   0.110749458410284   1.0000000
N2   N   0.952084966045317   0.760886249642153   0.110705195234430   1.0000000
N2   N   0.097022435489091   0.905731840786189   0.110669803405756   1.0000000
N2   N   0.099489929748098   0.049663953101235   0.110709191102881   1.0000000
N2   N   0.101080745345668   0.192848015686054   0.110788632751817   1.0000000
N2   N   0.100149951228510   0.334730714255540   0.110779750008127   1.0000000
N2   N   0.098026657627027   0.477179402578011   0.110729457461855   1.0000000
N2   N   0.096484322064010   0.619986276181816   0.110712693412956   1.0000000
N2   N   0.096171642280777   0.762757888518156   0.110709799878029   1.0000000
N2   N   0.240127408918377   0.906626929959450   0.110683817507002   1.0000000
N2   N   0.241942771019138   0.050500731164593   0.110679413359255   1.0000000
N2   N   0.246616849995340   0.196693729525782   0.110731109102599   1.0000000
N2   N   0.246944321786360   0.339062755781162   0.110742303168471   1.0000000
N2   N   0.241478884743998   0.478720395543250   0.110693055103740   1.0000000
N2   N   0.239666453158504   0.620917980719765   0.110722043901015   1.0000000
N2   N   0.239438447745014   0.763577697789834   0.110721052121774   1.0000000
N2   N   0.383087891356269   0.906486188024608   0.110730090304237   1.0000000
N2   N   0.384145267478609   0.049687638555899   0.110723266480610   1.0000000
N2   N   0.386504561402234   0.194337024018906   0.110742642501899   1.0000000
N2   N   0.396961517844287   0.346118509696010   0.110758103108850   1.0000000
N2   N   0.387713642143322   0.485602865178232   0.110705655164192   1.0000000
N2   N   0.382838670885973   0.622615883874378   0.110688057284294   1.0000000
N2   N   0.382473581824802   0.764028617995714   0.110741342605194   1.0000000
N2   N   0.526019243543371   0.905224774652175   0.110724188975663   1.0000000
N2   N   0.526926851002410   0.047834141353284   0.110750333776028   1.0000000
N2   N   0.528067150081510   0.190483758147372   0.110771577753039   1.0000000
N2   N   0.530459975208400   0.333260648824224   0.110758157823719   1.0000000
N2   N   0.480142956468747   0.529651111284378   0.110784163320725   1.0000000
N2   N   0.523730445088896   0.619432015150603   0.110738351000175   1.0000000
N2   N   0.524876608361523   0.762625593613888   0.110679749295033   1.0000000
N2   N   0.668202026007825   0.902065361044149   0.110711601377127   1.0000000
N2   N   0.669677311093353   0.046187059550290   0.110730044319707   1.0000000
N2   N   0.670627608748105   0.189221547571584   0.110726632359395   1.0000000
N2   N   0.671701584396818   0.331649916149466   0.110728044108701   1.0000000
N2   N   0.668036241177265   0.473565567604244   0.110711330106344   1.0000000
N2   N   0.653573352639996   0.608395895526041   0.110756545341695   1.0000000
N2   N   0.662471345413638   0.753547452822212   0.110719989822746   1.0000000
N2   N   0.808945281885344   0.900655725494733   0.110719819536481   1.0000000
N2   N   0.812246299091813   0.045891832046821   0.110739596913383   1.0000000
N2   N   0.813324893629033   0.189411070730844   0.110714353268436   1.0000000
N2   N   0.813682281282899   0.332502441676613   0.110684588478607   1.0000000
N2   N   0.811713254602061   0.475326655419155   0.110716509514488   1.0000000
N2   N   0.807004865879764   0.616669264759863   0.110713010498165   1.0000000
N2   N   0.805893571556983   0.756250484535754   0.110681858022033   1.0000000


