data_1
_audit_creation_method   'vasp2cif'
_cell_length_a    17.52789999999977
_cell_length_b    17.52789999999977
_cell_length_c    15.0
_cell_angle_alpha    90.0
_cell_angle_beta    90.0
_cell_angle_gamma    119.99999999999916

_symmetry_space_group_name_H-M    'P 1'
loop_
_atom_site_label
_atom_site_type_symbol
_atom_site_fract_x
_atom_site_fract_y
_atom_site_fract_z
_atom_site_occupancy
Ge2   Ge   0.491543897121287   0.508457504795703   0.110848892419338   1.0000000
B2   B   0.906141747839388   0.953150013347352   0.111030516664703   1.0000000
B2   B   0.904695245627381   0.095306775568621   0.111024704498489   1.0000000
B2   B   0.904253344084644   0.238032431132714   0.111022597412475   1.0000000
B2   B   0.904534783021279   0.380917904068882   0.110962971311104   1.0000000
B2   B   0.905944786960464   0.523958110590808   0.111030659926876   1.0000000
B2   B   0.907180423113736   0.667299738772404   0.111109566987559   1.0000000
B2   B   0.907542348281076   0.810861836663870   0.111067237934356   1.0000000
B2   B   0.048324269001614   0.951677752194388   0.111062972615991   1.0000000
B2   B   0.046852007848651   0.093860273356599   0.111030516664703   1.0000000
B2   B   0.046422368250875   0.237055163537780   0.110979794496591   1.0000000
B2   B   0.046778716461844   0.380319076963908   0.110984543151696   1.0000000
B2   B   0.047930827386548   0.523382190602118   0.110991394426758   1.0000000
B2   B   0.049024620554982   0.666311502991224   0.111066241222966   1.0000000
B2   B   0.049095494465331   0.809158121024783   0.111090027551444   1.0000000
B2   B   0.190843900171229   0.950906526730679   0.111090027551444   1.0000000
B2   B   0.189140184532137   0.092459672914924   0.111067237934356   1.0000000
B2   B   0.187345344703353   0.234365674428591   0.111022666603618   1.0000000
B2   B   0.188397016705285   0.379199298445012   0.111007909178078   1.0000000
B2   B   0.189890067556319   0.522845824460800   0.111027563287780   1.0000000
B2   B   0.191505755885506   0.665844647724181   0.111022717069218   1.0000000
B2   B   0.191468970884058   0.808533050311939   0.111037089672552   1.0000000
B2   B   0.333690518205781   0.950977400641013   0.111066241222966   1.0000000
B2   B   0.332702282424607   0.092821598082254   0.111109566987559   1.0000000
B2   B   0.329601196330396   0.232626205441803   0.111051760497521   1.0000000
B2   B   0.326832355501642   0.374971291285108   0.111028585873145   1.0000000
B2   B   0.331632550358275   0.521730758304752   0.111078159574699   1.0000000
B2   B   0.334459026797984   0.665542994399011   0.111057500087682   1.0000000
B2   B   0.334157373472808   0.808496265310506   0.111022717069218   1.0000000
B2   B   0.476619830594878   0.952071193809456   0.110991394426758   1.0000000
B2   B   0.476043910606190   0.094057234235543   0.111030659926876   1.0000000
B2   B   0.475032004986753   0.235365928507410   0.111063391459923   1.0000000
B2   B   0.469095421030089   0.370735492798368   0.110974365307445   1.0000000
B2   B   0.478271262892237   0.668369470838722   0.111078159574699   1.0000000
B2   B   0.477156196736193   0.810111953639697   0.111027563287780   1.0000000
B2   B   0.619682944232095   0.953223304734159   0.110984543151696   1.0000000
B2   B   0.619084117127131   0.095467238174702   0.110962971311104   1.0000000
B2   B   0.618730841446066   0.238058431622952   0.110975129996891   1.0000000
B2   B   0.618687622784518   0.381314398411486   0.111020630074237   1.0000000
B2   B   0.629266528397642   0.530906600166909   0.110974365307445   1.0000000
B2   B   0.625030729910888   0.673169665695355   0.111028585873145   1.0000000
B2   B   0.620802722750990   0.811605004490717   0.111007909178078   1.0000000
B2   B   0.762946857658231   0.953579652945141   0.110979794496591   1.0000000
B2   B   0.761969590063289   0.095748677111354   0.111022597412475   1.0000000
B2   B   0.761656890925823   0.238345130270182   0.111011255427259   1.0000000
B2   B   0.761943589573037   0.381271179749947   0.110975129996891   1.0000000
B2   B   0.764636092688591   0.524970016210235   0.111063391459923   1.0000000
B2   B   0.767375815754198   0.670400824866614   0.111051760497521   1.0000000
B2   B   0.765636346767416   0.812656676492651   0.111022666603618   1.0000000
N2   N   0.953806989389295   0.905391355363422   0.111034905845228   1.0000000
N2   N   0.952367359286303   0.047634042631697   0.111019817515294   1.0000000
N2   N   0.951602959108460   0.190200811421464   0.110989460280808   1.0000000
N2   N   0.951686950269251   0.333064672545270   0.110964410720078   1.0000000
N2   N   0.952748648612976   0.476002879542328   0.110960033605981   1.0000000
N2   N   0.953892719380158   0.619055260949123   0.111076819989843   1.0000000
N2   N   0.954259646933568   0.762282212868372   0.111080132268948   1.0000000
N2   N   0.095979967372371   0.904021434545626   0.111062896424845   1.0000000
N2   N   0.094610046554582   0.046194412528711   0.111034905845228   1.0000000
N2   N   0.093116511713918   0.188377848735494   0.110983081862939   1.0000000
N2   N   0.093578561695750   0.332082038080990   0.110960044688536   1.0000000
N2   N   0.094748597689882   0.475431046866651   0.110971144435543   1.0000000
N2   N   0.096184634039198   0.618495482518222   0.111003157555812   1.0000000
N2   N   0.096420919423796   0.761339727805894   0.111053953984185   1.0000000
N2   N   0.238661674112120   0.903580482494198   0.111053953984185   1.0000000
N2   N   0.237719189049624   0.045741754984437   0.111080132268948   1.0000000
N2   N   0.235279447676764   0.186776828344368   0.111020664083764   1.0000000
N2   N   0.233244410618178   0.328646000214585   0.111003641000281   1.0000000
N2   N   0.236203396284104   0.474593501296844   0.111020858160619   1.0000000
N2   N   0.238852588160617   0.618150012892227   0.111026082329240   1.0000000
N2   N   0.239000749386190   0.761000652531814   0.111001811403146   1.0000000
N2   N   0.381505919399779   0.903816767878796   0.111003157555812   1.0000000
N2   N   0.380946140968862   0.046108682537851   0.111076819989843   1.0000000
N2   N   0.379776794821239   0.187737573309801   0.111048352004891   1.0000000
N2   N   0.375697032179143   0.326894882985274   0.111022652374954   1.0000000
N2   N   0.371636148435115   0.468236183492820   0.111035388441636   1.0000000
N2   N   0.382161500954539   0.617839900963461   0.111065593620636   1.0000000
N2   N   0.381851389025788   0.761148813757395   0.111026082329240   1.0000000
N2   N   0.524570355050354   0.905252804228121   0.110971144435543   1.0000000
N2   N   0.523998522374672   0.047252753305031   0.110960033605981   1.0000000
N2   N   0.523496631349672   0.189262071118208   0.110991781655480   1.0000000
N2   N   0.522463293719680   0.330998376885162   0.111069725970711   1.0000000
N2   N   0.531765218424175   0.628365253482891   0.111035388441636   1.0000000
N2   N   0.525407900620162   0.763798005633901   0.111020858160619   1.0000000
N2   N   0.667919363836013   0.906422840222243   0.110960044688536   1.0000000
N2   N   0.666936729371719   0.048314451648762   0.110964410720078   1.0000000
N2   N   0.666474544952400   0.190806271213429   0.110965847093105   1.0000000
N2   N   0.666211102159683   0.333790299757310   0.110950710247720   1.0000000
N2   N   0.669003025031834   0.477538108197315   0.111069725970711   1.0000000
N2   N   0.673106518931723   0.624304369738854   0.111022652374954   1.0000000
N2   N   0.671355401702392   0.766756991299833   0.111003641000281   1.0000000
N2   N   0.811623553182515   0.906884890204087   0.110983081862939   1.0000000
N2   N   0.809800590496522   0.048398442809539   0.110989460280808   1.0000000
N2   N   0.809195406004960   0.190805995913031   0.111032095739987   1.0000000
N2   N   0.809195130704560   0.333526856964603   0.110965847093105   1.0000000
N2   N   0.810739330799790   0.476504770567327   0.110991781655480   1.0000000
N2   N   0.812263828608184   0.620224607096759   0.111048352004891   1.0000000
N2   N   0.813224573573625   0.764721954241238   0.111020664083764   1.0000000


