data_1
_audit_creation_method   'vasp2cif'
_cell_length_a    17.52789999999977
_cell_length_b    17.52789999999977
_cell_length_c    15.0
_cell_angle_alpha    90.0
_cell_angle_beta    90.0
_cell_angle_gamma    119.99999999999916

_symmetry_space_group_name_H-M    'P 1'
loop_
_atom_site_label
_atom_site_type_symbol
_atom_site_fract_x
_atom_site_fract_y
_atom_site_fract_z
_atom_site_occupancy
B2   B   0.905129865868856   0.953138744894498   0.111001248996807   1.0000000
B2   B   0.904403994951750   0.095598026244235   0.111023653814748   1.0000000
B2   B   0.904140691617141   0.238380584805493   0.111031709387198   1.0000000
B2   B   0.904091221922326   0.381193643776096   0.110975086573305   1.0000000
B2   B   0.904251716744770   0.523947904855113   0.110995572101094   1.0000000
B2   B   0.904849870532241   0.666876804152297   0.111030400378285   1.0000000
B2   B   0.905373716933169   0.810267875953306   0.111024702342307   1.0000000
B2   B   0.047599174267555   0.952402846928459   0.110991771178237   1.0000000
B2   B   0.046863276301512   0.094872155327147   0.111001248996807   1.0000000
B2   B   0.046641137194922   0.237892372443826   0.110993587458180   1.0000000
B2   B   0.046836702224943   0.380904096003100   0.110997941749597   1.0000000
B2   B   0.047353871564106   0.523743540842515   0.110994014825530   1.0000000
B2   B   0.047728242072026   0.666579359125448   0.111004874971892   1.0000000
B2   B   0.047780004262797   0.809534618294283   0.110970691234760   1.0000000
B2   B   0.190467402901733   0.952222016933217   0.110970691234760   1.0000000
B2   B   0.189734145242692   0.094628304262836   0.111024702342307   1.0000000
B2   B   0.188324562377434   0.236540005899348   0.111002393611601   1.0000000
B2   B   0.189089580760813   0.380255058681299   0.111002196981149   1.0000000
B2   B   0.190429983918915   0.523305515804157   0.111049014927523   1.0000000
B2   B   0.190891911464199   0.666304338593177   0.111064571768982   1.0000000
B2   B   0.190683434268564   0.809318586927452   0.110984438418111   1.0000000
B2   B   0.333422662071535   0.952273779123990   0.111004874971893   1.0000000
B2   B   0.333125217044689   0.095152150663764   0.111030400378285   1.0000000
B2   B   0.331644068995698   0.236817699609472   0.111058423256458   1.0000000
B2   B   0.329029973076531   0.377860571670897   0.111071063443833   1.0000000
B2   B   0.334011912140444   0.521908129781479   0.111128626870292   1.0000000
B2   B   0.334356776763140   0.665645244433850   0.111091737483362   1.0000000
B2   B   0.333697682603845   0.809110109731808   0.111064571768982   1.0000000
B2   B   0.476258480354482   0.952648149631901   0.110994014825530   1.0000000
B2   B   0.476054116341900   0.095750304451226   0.110995572101094   1.0000000
B2   B   0.475674640998507   0.238935599034078   0.111073842698215   1.0000000
B2   B   0.473243994262310   0.380565376576117   0.111051924262059   1.0000000
B2   B   0.478093891415540   0.665990109056557   0.111128626870292   1.0000000
B2   B   0.476696505392861   0.809572037277089   0.111049014927523   1.0000000
B2   B   0.619097925192922   0.953165318971044   0.110997941749597   1.0000000
B2   B   0.618808377419913   0.095910799273673   0.110975086573305   1.0000000
B2   B   0.618564675073752   0.238940302426058   0.111019518151986   1.0000000
B2   B   0.617934812300820   0.382067208895167   0.111085708811230   1.0000000
B2   B   0.619436644619878   0.526758026934684   0.111051924262059   1.0000000
B2   B   0.622141449525088   0.670972048120461   0.111071063443833   1.0000000
B2   B   0.619746962514717   0.810912440435194   0.111002196981149   1.0000000
B2   B   0.762109648752179   0.953360884001089   0.110993587458180   1.0000000
B2   B   0.761621436390510   0.095861329578860   0.111031709387198   1.0000000
B2   B   0.761369886625762   0.238632134570235   0.111016008130642   1.0000000
B2   B   0.761061718769942   0.381437346122242   0.111019518151986   1.0000000
B2   B   0.761066422161941   0.524327380198484   0.111073842698215   1.0000000
B2   B   0.763184321586509   0.668357952201299   0.111058423256458   1.0000000
B2   B   0.763462015296661   0.811677458818591   0.111002393611601   1.0000000
N2   N   0.952781545674119   0.905405243179935   0.110995326038956   1.0000000
N2   N   0.952032708895175   0.047968693022828   0.110996652027080   1.0000000
N2   N   0.951500429159960   0.190591022384910   0.111006212096803   1.0000000
N2   N   0.951521940867583   0.333466607629049   0.110982229198577   1.0000000
N2   N   0.951958822341574   0.476348327979475   0.110957127976076   1.0000000
N2   N   0.952534140875692   0.619211468977481   0.110996970758754   1.0000000
N2   N   0.952828407433125   0.762277088253093   0.110991133973841   1.0000000
N2   N   0.095289648099765   0.904711753818244   0.110945991596815   1.0000000
N2   N   0.094596158738047   0.047219856243856   0.110995326038956   1.0000000
N2   N   0.093347293907045   0.189409781891667   0.110962910716920   1.0000000
N2   N   0.093621325035657   0.332835642248824   0.110977044971767   1.0000000
N2   N   0.094676779998691   0.476063960269459   0.110993447415736   1.0000000
N2   N   0.095339512750035   0.619008564834667   0.111010580257990   1.0000000
N2   N   0.095423172551556   0.761874196919974   0.110962990599798   1.0000000
N2   N   0.238127204998038   0.904578229366445   0.110962990599798   1.0000000
N2   N   0.237724313664921   0.047172994484891   0.110991133973841   1.0000000
N2   N   0.236224474778147   0.188986157111873   0.111020075765402   1.0000000
N2   N   0.233968470313017   0.330438398364099   0.110987685044107   1.0000000
N2   N   0.237137040451943   0.475388281068916   0.111025294100627   1.0000000
N2   N   0.238364740394734   0.618756415038939   0.111067063593225   1.0000000
N2   N   0.238274400446002   0.761727001472011   0.111028554706121   1.0000000
N2   N   0.380992837083327   0.904661889167955   0.111010580257990   1.0000000
N2   N   0.380789932940522   0.047467261042324   0.110996970758754   1.0000000
N2   N   0.380219592586484   0.189855050601213   0.111044490111176   1.0000000
N2   N   0.377250509018654   0.330408056033061   0.111030149668953   1.0000000
N2   N   0.375540822681719   0.470332643678231   0.111150932457596   1.0000000
N2   N   0.381757889677725   0.618243512240279   0.111089187615728   1.0000000
N2   N   0.381244986879045   0.761636661523265   0.111067063593225   1.0000000
N2   N   0.523937441647548   0.905324621919320   0.110993447415736   1.0000000
N2   N   0.523653073937509   0.048042579576420   0.110957127976076   1.0000000
N2   N   0.523395616983425   0.190926295479701   0.111013296045016   1.0000000
N2   N   0.522851748041320   0.334076399040904   0.111087336452878   1.0000000
N2   N   0.529668758238781   0.624460579236275   0.111150932457596   1.0000000
N2   N   0.524613120848081   0.762864361466063   0.111025294100627   1.0000000
N2   N   0.667165759668167   0.906380076882335   0.110977044971767   1.0000000
N2   N   0.666534794287928   0.048479461050430   0.110982229198577   1.0000000
N2   N   0.666254941567632   0.191108750211794   0.110977666294211   1.0000000
N2   N   0.665977347682763   0.334024054234237   0.111027172601763   1.0000000
N2   N   0.665925002876100   0.477149653875695   0.111087336452878   1.0000000
N2   N   0.669593345883939   0.622750892899330   0.111030149668953   1.0000000
N2   N   0.669563003552900   0.766032931604987   0.110987685044107   1.0000000
N2   N   0.810591620026340   0.906654108010957   0.110962910716920   1.0000000
N2   N   0.809410379533093   0.048500972758026   0.111006212096803   1.0000000
N2   N   0.809005576814364   0.190995825103642   0.111023595526813   1.0000000
N2   N   0.808892651706204   0.333746460349368   0.110977666294211   1.0000000
N2   N   0.809075106438304   0.476605784933566   0.111013296045016   1.0000000
N2   N   0.810146351316792   0.619781809331523   0.111044490111176   1.0000000
N2   N   0.811015244806111   0.763776927139863   0.111020075765402   1.0000000
P2   P   0.496352653933869   0.503649367263120   0.111076942708421   1.0000000


