data_1
_audit_creation_method   'vasp2cif'
_cell_length_a    17.52789999999977
_cell_length_b    17.52789999999977
_cell_length_c    15.0
_cell_angle_alpha    90.0
_cell_angle_beta    90.0
_cell_angle_gamma    119.99999999999916

_symmetry_space_group_name_H-M    'P 1'
loop_
_atom_site_label
_atom_site_type_symbol
_atom_site_fract_x
_atom_site_fract_y
_atom_site_fract_z
_atom_site_occupancy
B2   B   0.904870987559690   0.952509861162195   0.110946534023644   1.0000000
B2   B   0.904781585285495   0.095301038442935   0.111002446964352   1.0000000
B2   B   0.904759124555712   0.238085047216349   0.111020281988705   1.0000000
B2   B   0.904656244964854   0.380833509856085   0.110958183139180   1.0000000
B2   B   0.905233975052721   0.523774279530411   0.110960621946255   1.0000000
B2   B   0.906615045995762   0.667134886234008   0.111020417293844   1.0000000
B2   B   0.906521308009440   0.810930118907871   0.110982440289615   1.0000000
B2   B   0.048438399807315   0.953143123184922   0.110943216805777   1.0000000
B2   B   0.047888593433187   0.095568770383087   0.110949905480983   1.0000000
B2   B   0.047814107242543   0.238209468059202   0.110943901737550   1.0000000
B2   B   0.047779380235725   0.380871106721779   0.110979919712236   1.0000000
B2   B   0.047866836309880   0.523718167750682   0.110981530569318   1.0000000
B2   B   0.048409546613594   0.666831976119901   0.111004440807431   1.0000000
B2   B   0.048487889929794   0.810013309476691   0.110973282109318   1.0000000
B2   B   0.190819045040026   0.952631661058434   0.110951668017422   1.0000000
B2   B   0.190825652531665   0.095620615614280   0.110990149352942   1.0000000
B2   B   0.191018435052654   0.238538754805833   0.110953261697695   1.0000000
B2   B   0.190994641310349   0.381038765173477   0.110958006587524   1.0000000
B2   B   0.190618753775179   0.523697956492396   0.111047678591977   1.0000000
B2   B   0.190564627149373   0.666710526591082   0.111063572346761   1.0000000
B2   B   0.190862216677587   0.809756590492295   0.110967097899402   1.0000000
B2   B   0.333497993908161   0.952530896778386   0.110975137452750   1.0000000
B2   B   0.333260478596812   0.095059183902859   0.111027134299145   1.0000000
B2   B   0.333371558067484   0.237694452249378   0.111090302397128   1.0000000
B2   B   0.334874752665129   0.381605951391765   0.111103835584046   1.0000000
B2   B   0.333529237994994   0.524134775134118   0.111098273519006   1.0000000
B2   B   0.332769696092282   0.666760064776746   0.111104465060562   1.0000000
B2   B   0.333363330064611   0.809709582696110   0.111055343066540   1.0000000
B2   B   0.476152059493290   0.952559254738680   0.110966055066225   1.0000000
B2   B   0.476128850407161   0.095678043396917   0.110937347319010   1.0000000
B2   B   0.475373271279512   0.238460113124135   0.111054243051068   1.0000000
B2   B   0.474383050638671   0.665457825761064   0.111056562828372   1.0000000
B2   B   0.475847562100319   0.809292804040947   0.111017961935009   1.0000000
B2   B   0.618830935716493   0.952656944904666   0.110956719844613   1.0000000
B2   B   0.618914429386904   0.095343952488190   0.110946561879770   1.0000000
B2   B   0.618710110045261   0.237865476638502   0.110952029283710   1.0000000
B2   B   0.617701100517618   0.380119979046318   0.111033177834861   1.0000000
B2   B   0.618004480758520   0.519808583051381   0.111364914673318   1.0000000
B2   B   0.615489563519696   0.666970674686969   0.111252215699261   1.0000000
B2   B   0.618330467611945   0.810097940831132   0.110921079231668   1.0000000
B2   B   0.761674027115380   0.952334866945859   0.110940499844528   1.0000000
B2   B   0.761805898507389   0.095259478150200   0.111019184627930   1.0000000
B2   B   0.761724448646771   0.238051062546713   0.111020568387892   1.0000000
B2   B   0.761280649399199   0.380673640668336   0.110945252247264   1.0000000
B2   B   0.762512361930317   0.523751398087586   0.111016249827372   1.0000000
B2   B   0.766635781697408   0.669025141739545   0.111159472999666   1.0000000
B2   B   0.761396125460487   0.809057318415485   0.110976319659214   1.0000000
C2   C   0.474431737506826   0.380542001223023   0.111448853664017   1.0000000
C2   C   0.475258232896286   0.522284552819331   0.111445880495375   1.0000000
C2   C   0.518504758051131   0.472360639308195   0.111501242400464   1.0000000
C2   C   0.666933396895315   0.618850458989712   0.111489464554418   1.0000000
N2   N   0.953459670584125   0.905843265714777   0.110923306814264   1.0000000
N2   N   0.952528595844132   0.047817642264682   0.110949721281919   1.0000000
N2   N   0.952524466579052   0.190568729704174   0.110978144577292   1.0000000
N2   N   0.952453094296266   0.333294642365953   0.110968994033679   1.0000000
N2   N   0.952634528546260   0.476047075739281   0.110923600129294   1.0000000
N2   N   0.953490238593400   0.619094045831390   0.110984175781084   1.0000000
N2   N   0.953510519061555   0.762521695707561   0.110987089233664   1.0000000
N2   N   0.095797343341181   0.905229947095274   0.110933202900159   1.0000000
N2   N   0.095766825374896   0.048258360376554   0.110930958991462   1.0000000
N2   N   0.095716416473859   0.190921584559605   0.110914083943423   1.0000000
N2   N   0.095689037123448   0.333401421012028   0.110925441223517   1.0000000
N2   N   0.095446581000383   0.476033903368111   0.110979976558832   1.0000000
N2   N   0.095574064642468   0.618964760508178   0.110997935847297   1.0000000
N2   N   0.095815205922006   0.762133389582001   0.110953768776740   1.0000000
N2   N   0.238364232070128   0.904975705063071   0.110924216799837   1.0000000
N2   N   0.238187579638717   0.047777621108997   0.110979045570235   1.0000000
N2   N   0.238372304998827   0.190875946031663   0.110977409303352   1.0000000
N2   N   0.239570629094269   0.334071602726931   0.110936924943122   1.0000000
N2   N   0.238405781196235   0.476032316943348   0.111003210147871   1.0000000
N2   N   0.237794768999119   0.618898739684168   0.111081783416577   1.0000000
N2   N   0.238226800015897   0.761982032931573   0.111016602519215   1.0000000
N2   N   0.380998781822079   0.904913465409744   0.110983572601885   1.0000000
N2   N   0.380987524260450   0.047692131019515   0.110955645776578   1.0000000
N2   N   0.380511988876237   0.189976176573364   0.111061823834058   1.0000000
N2   N   0.381719429673463   0.332605256946395   0.111197345589829   1.0000000
N2   N   0.382352936892273   0.477526563615324   0.111182345274666   1.0000000
N2   N   0.379744548290979   0.618987517198885   0.111076402499025   1.0000000
N2   N   0.380692731441590   0.761969279670078   0.111071974149213   1.0000000
N2   N   0.523596658739434   0.904722004215365   0.110963561596858   1.0000000
N2   N   0.523706926555755   0.047910808957587   0.110900826281188   1.0000000
N2   N   0.523509356954210   0.191136857276671   0.110934457212835   1.0000000
N2   N   0.521270148754663   0.333997626438627   0.111167938401057   1.0000000
N2   N   0.520005984437098   0.616077046086553   0.111214845745390   1.0000000
N2   N   0.523087988989848   0.761184277476673   0.110937205996360   1.0000000
N2   N   0.666372693742176   0.905188399162321   0.110887840103434   1.0000000
N2   N   0.666549043066091   0.047807841235761   0.110953401544869   1.0000000
N2   N   0.666476657053895   0.190421132089653   0.110959482346177   1.0000000
N2   N   0.665619899878101   0.332610183908175   0.110907887012149   1.0000000
N2   N   0.666911003151541   0.474326523393167   0.111063780696134   1.0000000
N2   N   0.665079183960272   0.762166633469797   0.110977892183644   1.0000000
N2   N   0.809234089248629   0.904490975410196   0.110911389243460   1.0000000
N2   N   0.809483318713750   0.047626433764781   0.110986142353064   1.0000000
N2   N   0.809493155075106   0.190503810121430   0.111027043620807   1.0000000
N2   N   0.809248585831530   0.333252456657854   0.110959573685895   1.0000000
N2   N   0.809845591949779   0.476053334406409   0.110931096653210   1.0000000
N2   N   0.811941407872373   0.619594168778323   0.111016418760485   1.0000000
N2   N   0.811798804161545   0.763681942884857   0.110985607948788   1.0000000


