data_1
_audit_creation_method   'vasp2cif'
_cell_length_a    17.52789999999977
_cell_length_b    17.52789999999977
_cell_length_c    15.0
_cell_angle_alpha    90.0
_cell_angle_beta    90.0
_cell_angle_gamma    119.99999999999916

_symmetry_space_group_name_H-M    'P 1'
loop_
_atom_site_label
_atom_site_type_symbol
_atom_site_fract_x
_atom_site_fract_y
_atom_site_fract_z
_atom_site_occupancy
B2   B   0.906939861537637   0.955231226088005   0.110950485910902   1.0000000
B2   B   0.905992589633367   0.096848174587275   0.110970013895615   1.0000000
B2   B   0.905347299532446   0.238623926178837   0.110981314530007   1.0000000
B2   B   0.904669724207661   0.380586456658318   0.110852951079343   1.0000000
B2   B   0.902787630587371   0.522542636712953   0.110916647579542   1.0000000
B2   B   0.901680372598945   0.665192418619377   0.110985136724468   1.0000000
B2   B   0.905226998332689   0.810917361941625   0.110985021563920   1.0000000
B2   B   0.047669586987876   0.952682674938982   0.110928933767605   1.0000000
B2   B   0.047984016407601   0.095420773695195   0.110927748821681   1.0000000
B2   B   0.047723385434361   0.238188123395139   0.110951861743376   1.0000000
B2   B   0.047012361543530   0.380959710552813   0.110918217773039   1.0000000
B2   B   0.045608773526372   0.523479368632993   0.110881343970570   1.0000000
B2   B   0.045048903285725   0.665727055427754   0.110929263545999   1.0000000
B2   B   0.045587515325400   0.808490910390024   0.110915600943334   1.0000000
B2   B   0.188702234465783   0.950928671774865   0.110993501394113   1.0000000
B2   B   0.190442035837887   0.094653713150242   0.111011917696522   1.0000000
B2   B   0.188830087277232   0.235588120718030   0.111029499319929   1.0000000
B2   B   0.188963083615733   0.380084650127893   0.111035475391080   1.0000000
B2   B   0.187468254503985   0.523882863289900   0.111014017427291   1.0000000
B2   B   0.188357883141267   0.666354525336522   0.111036915316492   1.0000000
B2   B   0.188113449005580   0.808442847406647   0.110946216633456   1.0000000
B2   B   0.331201784780485   0.950725585736137   0.110944766999248   1.0000000
B2   B   0.331513519813800   0.092518833334420   0.111031451681759   1.0000000
B2   B   0.334277050565162   0.237183420549584   0.111061547152241   1.0000000
B2   B   0.328631164610255   0.375839083175033   0.111171825417627   1.0000000
B2   B   0.328088289685496   0.523077698932867   0.111183440302761   1.0000000
B2   B   0.331795234882137   0.667347360095367   0.111029653413274   1.0000000
B2   B   0.331144880439116   0.809258593257936   0.110992039915767   1.0000000
B2   B   0.474677518367206   0.952535142008016   0.110911905761579   1.0000000
B2   B   0.474694229784124   0.091336671661898   0.110919532389516   1.0000000
B2   B   0.474622038088278   0.229242974537328   0.111083019063958   1.0000000
B2   B   0.483113963279821   0.372495578095699   0.111256397126706   1.0000000
B2   B   0.476479090426617   0.677043697012859   0.111482909249178   1.0000000
B2   B   0.474937349031586   0.814197325582735   0.110929987930788   1.0000000
B2   B   0.619205378317564   0.955366649466298   0.110905045896314   1.0000000
B2   B   0.618805181504980   0.094362990777447   0.110937677532094   1.0000000
B2   B   0.618866987332190   0.233600139225581   0.110953042317771   1.0000000
B2   B   0.619450325208724   0.372792310089375   0.111025370311411   1.0000000
B2   B   0.624720730366430   0.683253745290910   0.111607767982362   1.0000000
B2   B   0.620473347075971   0.817243226509226   0.111009667733596   1.0000000
B2   B   0.763781021908777   0.956201976603453   0.110931722085667   1.0000000
B2   B   0.762786910119433   0.096615664438347   0.110971968015160   1.0000000
B2   B   0.762423512872688   0.237481018951778   0.110938924943640   1.0000000
B2   B   0.762102017537985   0.378861339102303   0.110930866553726   1.0000000
B2   B   0.757599541953951   0.519964966695258   0.111000505835394   1.0000000
B2   B   0.762807874055256   0.668546762543297   0.111072831896544   1.0000000
B2   B   0.766445870160974   0.816458609184905   0.110991132968631   1.0000000
In2   In   0.491842179541413   0.522117908043527   0.111884441138426   1.0000000
N2   N   0.953080241287443   0.906251718600865   0.110924101923978   1.0000000
N2   N   0.953625670753371   0.049465835935632   0.110929719448652   1.0000000
N2   N   0.952993745634316   0.191330543319806   0.110959318230477   1.0000000
N2   N   0.952411294300462   0.333318172867766   0.110885851342374   1.0000000
N2   N   0.951189902736606   0.475600397510341   0.110819591229321   1.0000000
N2   N   0.950216504551400   0.618166658944765   0.110942669847868   1.0000000
N2   N   0.950771784889674   0.761318679555181   0.110941569164121   1.0000000
N2   N   0.093779378966209   0.903785914906097   0.110927883023075   1.0000000
N2   N   0.095276769903898   0.047617030938017   0.110905865707722   1.0000000
N2   N   0.094291633116569   0.189581186951101   0.110936113261542   1.0000000
N2   N   0.094129275973253   0.332974285941996   0.110952101631266   1.0000000
N2   N   0.092933000669178   0.476019501600496   0.110899146165838   1.0000000
N2   N   0.093200622702233   0.618648113263021   0.110922725421583   1.0000000
N2   N   0.093095141313806   0.760960508042405   0.110898350660671   1.0000000
N2   N   0.236009067048635   0.903288467586441   0.110932609416647   1.0000000
N2   N   0.236430669451834   0.045589204838928   0.111037947566052   1.0000000
N2   N   0.237985115892133   0.189371705797662   0.111036248847045   1.0000000
N2   N   0.233746586926345   0.329086667921004   0.111076102377932   1.0000000
N2   N   0.233236937715782   0.475783014374405   0.111016042084934   1.0000000
N2   N   0.236147933712275   0.619325148007919   0.111056704458692   1.0000000
N2   N   0.235927493390130   0.761405474636978   0.110985413717105   1.0000000
N2   N   0.379232388139125   0.904076084014188   0.110926700919468   1.0000000
N2   N   0.379189905961860   0.044951017611532   0.110934650277651   1.0000000
N2   N   0.379180402133003   0.186281264860936   0.111040857593508   1.0000000
N2   N   0.382651167595569   0.332151258301699   0.111072724639183   1.0000000
N2   N   0.363362640300566   0.467278420725790   0.111375821521466   1.0000000
N2   N   0.379892766510358   0.620815619493174   0.111061099085826   1.0000000
N2   N   0.379335840703556   0.763067231594524   0.110997102958207   1.0000000
N2   N   0.523701463656223   0.908008275017853   0.110889592426439   1.0000000
N2   N   0.523373736549421   0.046081007949920   0.110887207400893   1.0000000
N2   N   0.523423320512458   0.184038921816055   0.110931947417921   1.0000000
N2   N   0.523938468200023   0.319807989180361   0.111200127202596   1.0000000
N2   N   0.551360554848401   0.458586421738253   0.111532221446133   1.0000000
N2   N   0.534317367948033   0.645970399238757   0.112441923128803   1.0000000
N2   N   0.524520470539073   0.771317441430203   0.110964100116077   1.0000000
N2   N   0.668686494987744   0.910807763286371   0.110925326004288   1.0000000
N2   N   0.667673194943732   0.049144538079817   0.110910745732026   1.0000000
N2   N   0.667464071418701   0.188108935457553   0.110938492908719   1.0000000
N2   N   0.667947350265010   0.326993379618824   0.110942448570982   1.0000000
N2   N   0.666965258716466   0.464517184492890   0.110871723420162   1.0000000
N2   N   0.672317031781081   0.637643897174208   0.111007943466504   1.0000000
N2   N   0.673364960617631   0.775879737464958   0.111040863390299   1.0000000
N2   N   0.813000857035673   0.910374089638855   0.110939520315381   1.0000000
N2   N   0.811214807276545   0.050346207586975   0.110932689996175   1.0000000
N2   N   0.810578793020118   0.190946274852263   0.110975711256033   1.0000000
N2   N   0.810342290646759   0.332103728977535   0.110866223625244   1.0000000
N2   N   0.808897588759080   0.474202479986045   0.110965906062551   1.0000000
N2   N   0.806840901660402   0.617684627019598   0.111030059157105   1.0000000
N2   N   0.811139362385020   0.765705148803151   0.111024514111985   1.0000000


