data_1
_audit_creation_method   'vasp2cif'
_cell_length_a    14.93631414619966
_cell_length_b    14.936314146199727
_cell_length_c    13.341276283792837
_cell_angle_alpha    90.0
_cell_angle_beta    90.0
_cell_angle_gamma    119.99999999999984

_symmetry_space_group_name_H-M    'P 1'
loop_
_atom_site_label
_atom_site_type_symbol
_atom_site_fract_x
_atom_site_fract_y
_atom_site_fract_z
_atom_site_occupancy
N2   N   0.111078326332983   0.055564320890947   0.124881326576078   1.0000000
N2   N   0.611132123243285   0.555537191051843   0.124790912592946   1.0000000
N2   N   0.444445485569780   0.055572264954816   0.124930387705426   1.0000000
N2   N   0.944458019425892   0.555552268781522   0.124904752098799   1.0000000
N2   N   0.777713184123997   0.055523258728667   0.124905244942962   1.0000000
N2   N   0.111125696910653   0.722229515121991   0.625115752671426   1.0000000
N2   N   0.444445485569780   0.722206553948300   0.625069612294574   1.0000000
N2   N   0.277738788708509   0.222221653052946   0.624837476484605   1.0000000
N2   N   0.777774684745660   0.722219259385030   0.625116270135062   1.0000000
N2   N   0.611093082249402   0.222232299746114   0.625003833810059   1.0000000
N2   N   0.944377013260296   0.222182998123844   0.625146838999751   1.0000000
N2   N   0.277788745112303   0.722214051937792   0.124865914610766   1.0000000
N2   N   0.111038889486806   0.222186111410068   0.124874899949033   1.0000000
N2   N   0.444472584538104   0.222253685870428   0.125239485793469   1.0000000
N2   N   0.611093082249402   0.722194115836617   0.124996166189941   1.0000000
N2   N   0.944458019425892   0.722239083977705   0.124904752098799   1.0000000
N2   N   0.777732576209064   0.222203652988319   0.124921845169573   1.0000000
N2   N   0.111117339791078   0.888916977864561   0.625125792621334   1.0000000
N2   N   0.444437848183305   0.888885590758316   0.625125264739423   1.0000000
N2   N   0.277738788708509   0.388850468988891   0.624837476484605   1.0000000
N2   N   0.611132123243285   0.388928265524770   0.625209087407055   1.0000000
N2   N   0.777732576209064   0.888862256554074   0.625078154830429   1.0000000
N2   N   0.944426009661113   0.388862990717223   0.625126084848882   1.0000000
N2   N   0.111078326332983   0.388847338775365   0.124881326576078   1.0000000
N2   N   0.277788745112303   0.888908026507841   0.124865914610766   1.0000000
N2   N   0.611076755711046   0.888867373902944   0.124916293988292   1.0000000
N2   N   0.444495080955623   0.388914207144477   0.124719568574923   1.0000000
N2   N   0.944426009661113   0.888896352277216   0.124873915151117   1.0000000
N2   N   0.777774684745660   0.388888758693960   0.124883729864938   1.0000000
N2   N   0.277783048380561   0.555528649305374   0.625027219075881   1.0000000
N2   N   0.111078326332983   0.055564320890947   0.625118673423922   1.0000000
N2   N   0.611132123243285   0.555537191051843   0.625209087407055   1.0000000
N2   N   0.444445485569780   0.055572264954816   0.625069612294574   1.0000000
N2   N   0.944458019425892   0.555552268781522   0.625095247901200   1.0000000
N2   N   0.111117339791078   0.555533695259844   0.124874207378667   1.0000000
N2   N   0.777713184123997   0.055523258728667   0.625094755057037   1.0000000
N2   N   0.277783048380561   0.055587732408523   0.124972780924118   1.0000000
N2   N   0.444472584538104   0.555552232001011   0.125239485793469   1.0000000
N2   N   0.777800267224507   0.555566800278921   0.124912356310034   1.0000000
N2   N   0.611076755711046   0.055542715141432   0.124916293988292   1.0000000
N2   N   0.444472584538104   0.555552232001011   0.624760514206531   1.0000000
N2   N   0.944377013260296   0.055527348469787   0.124853161000249   1.0000000
N2   N   0.277788745112303   0.722214051937792   0.625134085389234   1.0000000
N2   N   0.111038889486806   0.222186111410068   0.625125100050967   1.0000000
N2   N   0.444472584538104   0.222253685870428   0.624760514206531   1.0000000
N2   N   0.611093082249402   0.722194115836617   0.625003833810059   1.0000000
N2   N   0.944458019425892   0.722239083977705   0.625095247901200   1.0000000
N2   N   0.777732576209064   0.222203652988319   0.625078154830429   1.0000000
N2   N   0.111125696910653   0.722229515121991   0.124884247328574   1.0000000
N2   N   0.444445485569780   0.722206553948300   0.124930387705426   1.0000000
N2   N   0.277738788708509   0.222221653052946   0.125162523515395   1.0000000
N2   N   0.777774684745660   0.722219259385030   0.124883729864938   1.0000000
N2   N   0.611093082249402   0.222232299746114   0.124996166189941   1.0000000
N2   N   0.944377013260296   0.222182998123844   0.124853161000249   1.0000000
N2   N   0.111078326332983   0.388847338775365   0.625118673423922   1.0000000
N2   N   0.277788745112303   0.888908026507841   0.625134085389234   1.0000000
N2   N   0.611076755711046   0.888867373902944   0.625083706011708   1.0000000
N2   N   0.444495080955623   0.388914207144477   0.625280431425077   1.0000000
N2   N   0.944426009661113   0.888896352277216   0.625126084848882   1.0000000
N2   N   0.111117339791078   0.888916977864561   0.124874207378667   1.0000000
N2   N   0.777774684745660   0.388888758693960   0.625116270135062   1.0000000
N2   N   0.444437848183305   0.888885590758316   0.124874735260576   1.0000000
N2   N   0.277738788708509   0.388850468988891   0.125162523515395   1.0000000
N2   N   0.277783048380561   0.555528649305374   0.124972780924118   1.0000000
N2   N   0.611132123243285   0.388928265524770   0.124790912592946   1.0000000
N2   N   0.777732576209064   0.888862256554074   0.124921845169573   1.0000000
N2   N   0.944426009661113   0.388862990717223   0.124873915151117   1.0000000
N2   N   0.111117339791078   0.555533695259844   0.625125792621334   1.0000000
N2   N   0.277783048380561   0.055587732408523   0.625027219075881   1.0000000
N2   N   0.777800267224507   0.555566800278921   0.625087643689966   1.0000000
N2   N   0.611076755711046   0.055542715141432   0.625083706011708   1.0000000
N2   N   0.944377013260296   0.055527348469787   0.625146838999751   1.0000000
N2   N   0.052524730789261   0.109205858013326   0.375000000000000   1.0000000
N2   N   0.557122744190159   0.599511461963632   0.375000000000000   1.0000000
N2   N   0.390244373257492   0.116114384224496   0.375000000000000   1.0000000
N2   N   0.893241113880504   0.613287223606924   0.375000000000000   1.0000000
N2   N   0.720793468938662   0.111497773163872   0.375000000000000   1.0000000
N2   N   0.055549862562557   0.777773247045666   0.875000000000000   1.0000000
N2   N   0.388881718971402   0.777775650127095   0.875000000000000   1.0000000
N2   N   0.222215777009748   0.277774555171542   0.875000000000000   1.0000000
N2   N   0.722220763051836   0.777775205859226   0.875000000000000   1.0000000
N2   N   0.555551512154822   0.277777228025561   0.875000000000000   1.0000000
N2   N   0.888889014493786   0.277781481394273   0.875000000000000   1.0000000
N2   N   0.224496313990428   0.778914823661882   0.375000000000000   1.0000000
N2   N   0.052524730789261   0.276652206109271   0.375000000000000   1.0000000
N2   N   0.383543245003707   0.278483207269573   0.375000000000000   1.0000000
N2   N   0.555864154045800   0.773093718336710   0.375000000000000   1.0000000
N2   N   0.889886363369426   0.777542535096818   0.375000000000000   1.0000000
N2   N   0.721407118860423   0.280229009504063   0.375000000000000   1.0000000
N2   N   0.055549456877409   0.944436569396848   0.875000000000000   1.0000000
N2   N   0.388881718971402   0.944439402177642   0.875000000000000   1.0000000
N2   N   0.222213594758057   0.444445185693376   0.875000000000000   1.0000000
N2   N   0.555555031685096   0.444444182509213   0.875000000000000   1.0000000
N2   N   0.722218372800657   0.944441889509624   0.875000000000000   1.0000000
N2   N   0.888890427600882   0.444448059375304   0.875000000000000   1.0000000
N2   N   0.055277284884370   0.444502393613764   0.375000000000000   1.0000000
N2   N   0.223914291535060   0.946302086278525   0.375000000000000   1.0000000
N2   N   0.555686643901271   0.944509988617299   0.375000000000000   1.0000000
N2   N   0.383543245003707   0.438393371067470   0.375000000000000   1.0000000
N2   N   0.887089218005671   0.942587578029196   0.375000000000000   1.0000000
N2   N   0.724991365363802   0.448149823790500   0.375000000000000   1.0000000
N2   N   0.222212488600756   0.611110669562864   0.875000000000000   1.0000000
N2   N   0.055551409072945   0.111105790218617   0.875000000000000   1.0000000
N2   N   0.555551512154822   0.611107617462597   0.875000000000000   1.0000000
N2   N   0.388881855348397   0.111106423716843   0.875000000000000   1.0000000
N2   N   0.888890515059406   0.611111924196376   0.875000000000000   1.0000000
N2   N   0.058139860010828   0.612176928655508   0.375000000000000   1.0000000
N2   N   0.722218372800657   0.111109816624368   0.875000000000000   1.0000000
N2   N   0.220415191441112   0.110730288251229   0.375000000000000   1.0000000
N2   N   0.390244373257492   0.607463322366339   0.375000000000000   1.0000000
N2   N   0.724991365363802   0.610174874906638   0.375000000000000   1.0000000
N2   N   0.555864154045800   0.116103769042426   0.375000000000000   1.0000000
N2   N   0.388881855348397   0.611108764964898   0.875000000000000   1.0000000
N2   N   0.886423297644018   0.109878315488680   0.375000000000000   1.0000000
N2   N   0.222213108428305   0.777773220880820   0.875000000000000   1.0000000
N2   N   0.055551409072945   0.277778952187664   0.875000000000000   1.0000000
N2   N   0.388882608527445   0.277772750267519   0.875000000000000   1.0000000
N2   N   0.555549102261533   0.777774960762198   0.875000000000000   1.0000000
N2   N   0.888890427600882   0.777775701558915   0.875000000000000   1.0000000
N2   N   0.722220763051836   0.277778890525945   0.875000000000000   1.0000000
N2   N   0.058139860010828   0.779296264688655   0.375000000000000   1.0000000
N2   N   0.390419526673634   0.777072485288654   0.375000000000000   1.0000000
N2   N   0.216850482310038   0.275091907821687   0.375000000000000   1.0000000
N2   N   0.721407118860423   0.774511442689696   0.375000000000000   1.0000000
N2   N   0.557122744190159   0.290944615559863   0.375000000000000   1.0000000
N2   N   0.887089218005671   0.277834973309810   0.375000000000000   1.0000000
N2   N   0.055549456877409   0.444446220813891   0.875000000000000   1.0000000
N2   N   0.222212488600756   0.944435152371229   0.875000000000000   1.0000000
N2   N   0.555547971404231   0.944440652368779   0.875000000000000   1.0000000
N2   N   0.388882608527445   0.444443191593262   0.875000000000000   1.0000000
N2   N   0.888889014493786   0.944440866432849   0.875000000000000   1.0000000
N2   N   0.055277284884370   0.944108224603934   0.375000000000000   1.0000000
N2   N   0.722224461406185   0.444446946551479   0.875000000000000   1.0000000
N2   N   0.390419526673634   0.946680374718316   0.375000000000000   1.0000000
N2   N   0.220415191441112   0.443018236523220   0.375000000000000   1.0000000
N2   N   0.223914291535060   0.610945538589871   0.375000000000000   1.0000000
N2   N   0.720793468938662   0.942629029108125   0.375000000000000   1.0000000
N2   N   0.889886363369426   0.445677161605944   0.375000000000000   1.0000000
N2   N   0.055549862562557   0.611109948850226   0.875000000000000   1.0000000
N2   N   0.222213594758057   0.111101742398016   0.875000000000000   1.0000000
N2   N   0.722224461406185   0.611110848188042   0.875000000000000   1.0000000
N2   N   0.555549102261533   0.111107474832672   0.875000000000000   1.0000000
N2   N   0.888888140972303   0.111110737152823   0.875000000000000   1.0000000
B2   B   0.110146170080066   0.055394917670239   0.375000000000000   1.0000000
B2   B   0.614237383645581   0.541638949690589   0.375000000000000   1.0000000
B2   B   0.444645942878285   0.059511655331376   0.375000000000000   1.0000000
B2   B   0.947369921375288   0.556739783083968   0.375000000000000   1.0000000
B2   B   0.775533885099580   0.054433609216458   0.375000000000000   1.0000000
B2   B   0.111113392259305   0.722223362796316   0.875000000000000   1.0000000
B2   B   0.444417720324477   0.722171191541818   0.875000000000000   1.0000000
B2   B   0.277813637705830   0.222261036020860   0.875000000000000   1.0000000
B2   B   0.777753010297979   0.722192085862673   0.875000000000000   1.0000000
B2   B   0.611069772643397   0.222241207654990   0.875000000000000   1.0000000
B2   B   0.944482844234897   0.222242653324379   0.875000000000000   1.0000000
B2   B   0.279432130729444   0.722138257554842   0.375000000000000   1.0000000
B2   B   0.107907812947417   0.220620573140372   0.375000000000000   1.0000000
B2   B   0.443830109624991   0.231594894249025   0.375000000000000   1.0000000
B2   B   0.609972440371099   0.713507229660567   0.375000000000000   1.0000000
B2   B   0.947369921375288   0.723963471624656   0.375000000000000   1.0000000
B2   B   0.775905434991655   0.223020128929099   0.375000000000000   1.0000000
B2   B   0.111124761015420   0.888909279184119   0.875000000000000   1.0000000
B2   B   0.444421553000534   0.888877443166932   0.875000000000000   1.0000000
B2   B   0.277813637705830   0.388885935018298   0.875000000000000   1.0000000
B2   B   0.611055409903955   0.388884010850138   0.875000000000000   1.0000000
B2   B   0.777773430160833   0.888870910382767   0.875000000000000   1.0000000
B2   B   0.944459397179433   0.388898983484755   0.875000000000000   1.0000000
B2   B   0.110146170080066   0.388084585743156   0.375000000000000   1.0000000
B2   B   0.279432130729444   0.890627206507933   0.375000000000000   1.0000000
B2   B   0.609782842230121   0.885773196204612   0.375000000000000   1.0000000
B2   B   0.944312637833079   0.888433719053218   0.375000000000000   1.0000000
B2   B   0.778469846451015   0.390954482845388   0.375000000000000   1.0000000
B2   B   0.277786296510054   0.555524707169996   0.875000000000000   1.0000000
B2   B   0.111154494145011   0.055591343844342   0.875000000000000   1.0000000
B2   B   0.611055409903955   0.555504732387145   0.875000000000000   1.0000000
B2   B   0.444417720324477   0.055579862115995   0.875000000000000   1.0000000
B2   B   0.944440236253451   0.555554213281969   0.875000000000000   1.0000000
B2   B   0.112926589979884   0.555739844784216   0.375000000000000   1.0000000
B2   B   0.777783296194960   0.055558314764148   0.875000000000000   1.0000000
B2   B   0.278933978807631   0.058582849904660   0.375000000000000   1.0000000
B2   B   0.443830109624991   0.545568548709302   0.375000000000000   1.0000000
B2   B   0.783283725681543   0.558308529507439   0.375000000000000   1.0000000
B2   B   0.609782842230121   0.057342979358839   0.375000000000000   1.0000000
B2   B   0.444410387536152   0.555487402302502   0.875000000000000   1.0000000
B2   B   0.942071009496927   0.053954078851549   0.375000000000000   1.0000000
B2   B   0.277772807017859   0.722204887398306   0.875000000000000   1.0000000
B2   B   0.111174352503559   0.222253842918444   0.875000000000000   1.0000000
B2   B   0.444410387536152   0.222256318566986   0.875000000000000   1.0000000
B2   B   0.611069772643397   0.722161898321735   0.875000000000000   1.0000000
B2   B   0.944440236253451   0.722219356304815   0.875000000000000   1.0000000
B2   B   0.777773430160833   0.222235853111396   0.875000000000000   1.0000000
B2   B   0.113586021609910   0.723459677471618   0.375000000000000   1.0000000
B2   B   0.444645942878285   0.718467620880245   0.375000000000000   1.0000000
B2   B   0.276377092075576   0.223580681351310   0.375000000000000   1.0000000
B2   B   0.778469846451015   0.720848696938955   0.375000000000000   1.0000000
B2   B   0.609972440371099   0.229798544043860   0.375000000000000   1.0000000
B2   B   0.942071009496927   0.221450263978713   0.375000000000000   1.0000000
B2   B   0.111154494145011   0.388896483633998   0.875000000000000   1.0000000
B2   B   0.277772807017859   0.888901252952882   0.875000000000000   1.0000000
B2   B   0.611085817257452   0.888859927957347   0.875000000000000   1.0000000
B2   B   0.444407443732916   0.388870388533122   0.875000000000000   1.0000000
B2   B   0.944459397179433   0.888893747028006   0.875000000000000   1.0000000
B2   B   0.112926589979884   0.890520078528998   0.375000000000000   1.0000000
B2   B   0.777753010297979   0.388894257768635   0.875000000000000   1.0000000
B2   B   0.444796901155513   0.889065117244421   0.375000000000000   1.0000000
B2   B   0.276377092075576   0.386129744057595   0.375000000000000   1.0000000
B2   B   0.278933978807631   0.553684462236307   0.375000000000000   1.0000000
B2   B   0.614237383645581   0.405931767288319   0.375000000000000   1.0000000
B2   B   0.775905434991655   0.886218639395886   0.375000000000000   1.0000000
B2   B   0.944312637833079   0.389212252113190   0.375000000000000   1.0000000
B2   B   0.111124761015420   0.555548815164629   0.875000000000000   1.0000000
B2   B   0.277786296510054   0.055594922673394   0.875000000000000   1.0000000
B2   B   0.777742247795724   0.555537790564530   0.875000000000000   1.0000000
B2   B   0.611085817257452   0.055559222633433   0.875000000000000   1.0000000
B2   B   0.944482844234897   0.055573524243854   0.875000000000000   1.0000000
B2   B   0.055619946810606   0.111196652867675   0.125150366433478   1.0000000
B2   B   0.555402051049170   0.610919496044614   0.125476093781862   1.0000000
B2   B   0.388932580698338   0.111318252455727   0.125521043306511   1.0000000
B2   B   0.888846892954039   0.611090113143693   0.125042107429477   1.0000000
B2   B   0.722154465576902   0.111091315032067   0.125071235204701   1.0000000
B2   B   0.055603130284364   0.777845826349014   0.624955345968771   1.0000000
B2   B   0.388922082700899   0.777728213940141   0.624886479160993   1.0000000
B2   B   0.222364406683504   0.277848870008421   0.624251737188927   1.0000000
B2   B   0.722115918992749   0.777687340991890   0.624888186885929   1.0000000
B2   B   0.555402051049170   0.277815888337891   0.624523906218138   1.0000000
B2   B   0.888866951065897   0.277743809800815   0.624952002354718   1.0000000
B2   B   0.222294867763468   0.777814100548402   0.125057444229130   1.0000000
B2   B   0.055619946810606   0.277756627276266   0.125150366433478   1.0000000
B2   B   0.388933438226584   0.277990743229754   0.126582750543204   1.0000000
B2   B   0.555496545177660   0.777667824251879   0.125206230425860   1.0000000
B2   B   0.888847247512231   0.777782336270979   0.125046330858615   1.0000000
B2   B   0.722115918992749   0.277761911334194   0.125111813114072   1.0000000
B2   B   0.055615946385658   0.944570286206038   0.624914907362819   1.0000000
B2   B   0.388922082700899   0.944527202094093   0.624886479160993   1.0000000
B2   B   0.222352547982234   0.444331268755250   0.624517133660193   1.0000000
B2   B   0.555242763748026   0.444288048540677   0.624615999221809   1.0000000
B2   B   0.722154465576902   0.944396483878170   0.624928764795298   1.0000000
B2   B   0.888847247512231   0.444398244574589   0.624953669141386   1.0000000
B2   B   0.055615946385658   0.444378993512948   0.125085092637181   1.0000000
B2   B   0.222313754131163   0.944618079515207   0.125144595547704   1.0000000
B2   B   0.555519718903829   0.944426526118579   0.125093991425735   1.0000000
B2   B   0.388933438226584   0.444276028330165   0.126582750543204   1.0000000
B2   B   0.888866951065897   0.944456474598417   0.125047997645281   1.0000000
B2   B   0.722056712787530   0.444383492430858   0.125079070080433   1.0000000
B2   B   0.222313754131163   0.611029007949291   0.624855404452296   1.0000000
B2   B   0.055619946810606   0.111196652867675   0.624849633566522   1.0000000
B2   B   0.555402051049170   0.610919496044614   0.624523906218138   1.0000000
B2   B   0.388932580698338   0.111318252455727   0.624478956693490   1.0000000
B2   B   0.888846892954039   0.611090113143693   0.624957892570523   1.0000000
B2   B   0.055603130284364   0.611090637268687   0.125044654031228   1.0000000
B2   B   0.722154465576902   0.111091315032067   0.624928764795298   1.0000000
B2   B   0.222352547982234   0.111354612560320   0.125482866339809   1.0000000
B2   B   0.388932580698338   0.610947661575954   0.125521043306511   1.0000000
B2   B   0.722056712787530   0.611006553690007   0.125079070080433   1.0000000
B2   B   0.555496545177660   0.111162054259115   0.125206230425860   1.0000000
B2   B   0.388932580698338   0.610947661575954   0.624478956693490   1.0000000
B2   B   0.888871926672054   0.111102630002698   0.125044529476395   1.0000000
B2   B   0.222294867763468   0.777814100548402   0.624942555770871   1.0000000
B2   B   0.055619946810606   0.277756627276266   0.624849633566522   1.0000000
B2   B   0.388933438226584   0.277990743229754   0.623417249456796   1.0000000
B2   B   0.555496545177660   0.777667824251879   0.624793769574140   1.0000000
B2   B   0.888847247512231   0.777782336270979   0.624953669141386   1.0000000
B2   B   0.722115918992749   0.277761911334194   0.624888186885929   1.0000000
B2   B   0.055603130284364   0.777845826349014   0.125044654031228   1.0000000
B2   B   0.388922082700899   0.777728213940141   0.125113520839005   1.0000000
B2   B   0.222364406683504   0.277848870008421   0.125748262811071   1.0000000
B2   B   0.722115918992749   0.777687340991890   0.125111813114072   1.0000000
B2   B   0.555402051049170   0.277815888337891   0.125476093781862   1.0000000
B2   B   0.888866951065897   0.277743809800815   0.125047997645281   1.0000000
B2   B   0.055615946385658   0.444378993512948   0.624914907362819   1.0000000
B2   B   0.222313754131163   0.944618079515207   0.624855404452296   1.0000000
B2   B   0.555519718903829   0.944426526118579   0.624906008574265   1.0000000
B2   B   0.388933438226584   0.444276028330165   0.623417249456796   1.0000000
B2   B   0.888866951065897   0.944456474598417   0.624952002354718   1.0000000
B2   B   0.055615946385658   0.944570286206038   0.125085092637181   1.0000000
B2   B   0.722056712787530   0.444383492430858   0.624920929919567   1.0000000
B2   B   0.388922082700899   0.944527202094093   0.125113520839005   1.0000000
B2   B   0.222352547982234   0.444331268755250   0.125482866339809   1.0000000
B2   B   0.222313754131163   0.611029007949291   0.125144595547704   1.0000000
B2   B   0.555242763748026   0.444288048540677   0.125384000778191   1.0000000
B2   B   0.722154465576902   0.944396483878170   0.125071235204701   1.0000000
B2   B   0.888847247512231   0.444398244574589   0.125046330858615   1.0000000
B2   B   0.055603130284364   0.611090637268687   0.624955345968771   1.0000000
B2   B   0.222352547982234   0.111354612560320   0.624517133660193   1.0000000
B2   B   0.722056712787530   0.611006553690007   0.624920929919567   1.0000000
B2   B   0.555496545177660   0.111162054259115   0.624793769574140   1.0000000
B2   B   0.888871926672054   0.111102630002698   0.624955470523604   1.0000000


