data_1
_audit_creation_method   'vasp2cif'
_cell_length_a    14.93631414619966
_cell_length_b    14.936314146199727
_cell_length_c    13.341276283792837
_cell_angle_alpha    90.0
_cell_angle_beta    90.0
_cell_angle_gamma    119.99999999999984

_symmetry_space_group_name_H-M    'P 1'
loop_
_atom_site_label
_atom_site_type_symbol
_atom_site_fract_x
_atom_site_fract_y
_atom_site_fract_z
_atom_site_occupancy
Pb2   Pb   0.502157598839572   0.417745466086454   0.375000000000000   1.0000000
N2   N   0.111421050822352   0.055701488335346   0.124789858092373   1.0000000
N2   N   0.611479472413862   0.555812014590473   0.123054300339437   1.0000000
N2   N   0.444747092965773   0.055667337504796   0.124538930348703   1.0000000
N2   N   0.944720961222628   0.555692431818617   0.124901728863173   1.0000000
N2   N   0.778105889319973   0.055719611326658   0.125003853577623   1.0000000
N2   N   0.111388586813301   0.722360960073318   0.624825769524010   1.0000000
N2   N   0.444747092965773   0.722413088794321   0.625461069651298   1.0000000
N2   N   0.278103033016783   0.222362828211814   0.625148538150692   1.0000000
N2   N   0.778093123485855   0.722413632928441   0.625896096746854   1.0000000
N2   N   0.611418364459006   0.222314788858889   0.626063708016609   1.0000000
N2   N   0.944773485061144   0.222384653253184   0.625001808379622   1.0000000
N2   N   0.278068014939361   0.722378006522981   0.125061316596389   1.0000000
N2   N   0.111454542423877   0.222393937878603   0.124817849286107   1.0000000
N2   N   0.444774333941913   0.222325878882486   0.124259862215457   1.0000000
N2   N   0.611418364459006   0.722436908933445   0.123936291983391   1.0000000
N2   N   0.944720961222628   0.722361862737351   0.124901728863173   1.0000000
N2   N   0.778095420751208   0.222359324773821   0.124741944675869   1.0000000
N2   N   0.111394502720392   0.889022136094048   0.624935367531357   1.0000000
N2   N   0.444749333783762   0.889041333558546   0.624979642033395   1.0000000
N2   N   0.278103033016783   0.389073538138290   0.625148538150692   1.0000000
N2   N   0.611479472413862   0.389000791156726   0.626945699660563   1.0000000
N2   N   0.778095420751208   0.889069429310725   0.625258055324130   1.0000000
N2   N   0.944751144285145   0.389034549184196   0.625041181752694   1.0000000
N2   N   0.111421050822352   0.389052895820335   0.124789858092373   1.0000000
N2   N   0.278068014939361   0.889023341749709   0.125061316596389   1.0000000
N2   N   0.611427959563314   0.889071531876344   0.124813437739879   1.0000000
N2   N   0.444890624442582   0.389111978887959   0.127574926829861   1.0000000
N2   N   0.944751144285145   0.889049928434283   0.124958818247305   1.0000000
N2   N   0.778093123485855   0.389012823890742   0.124103903253146   1.0000000
N2   N   0.278076898454559   0.555731201474032   0.625317518119229   1.0000000
N2   N   0.111421050822352   0.055701488335346   0.625210141907618   1.0000000
N2   N   0.611479472413862   0.555812014590473   0.626945699660563   1.0000000
N2   N   0.444747092965773   0.055667337504796   0.625461069651298   1.0000000
N2   N   0.944720961222628   0.555692431818617   0.625098271136826   1.0000000
N2   N   0.111394502720392   0.555705699959672   0.125064632468643   1.0000000
N2   N   0.778105889319973   0.055719611326658   0.624996146422382   1.0000000
N2   N   0.278076898454559   0.055679030313862   0.124682481880771   1.0000000
N2   N   0.444774333941913   0.555781788392764   0.124259862215457   1.0000000
N2   N   0.778057831651263   0.555695582492311   0.123854277995640   1.0000000
N2   N   0.611427959563314   0.055689761020297   0.124813437739879   1.0000000
N2   N   0.444774333941913   0.555781788392764   0.625740137784544   1.0000000
N2   N   0.944773485061144   0.055722165141289   0.124998191620378   1.0000000
N2   N   0.278068014939361   0.722378006522981   0.624938683403610   1.0000000
N2   N   0.111454542423877   0.222393937878603   0.625182150713894   1.0000000
N2   N   0.444774333941913   0.222325878882486   0.625740137784544   1.0000000
N2   N   0.611418364459006   0.722436908933445   0.626063708016609   1.0000000
N2   N   0.944720961222628   0.722361862737351   0.625098271136826   1.0000000
N2   N   0.778095420751208   0.222359324773821   0.625258055324130   1.0000000
N2   N   0.111388586813301   0.722360960073318   0.125174230475991   1.0000000
N2   N   0.444747092965773   0.722413088794321   0.124538930348703   1.0000000
N2   N   0.278103033016783   0.222362828211814   0.124851461849308   1.0000000
N2   N   0.778093123485855   0.722413632928441   0.124103903253146   1.0000000
N2   N   0.611418364459006   0.222314788858889   0.123936291983391   1.0000000
N2   N   0.944773485061144   0.222384653253184   0.124998191620378   1.0000000
N2   N   0.111421050822352   0.389052895820335   0.625210141907618   1.0000000
N2   N   0.278068014939361   0.889023341749709   0.624938683403610   1.0000000
N2   N   0.611427959563314   0.889071531876344   0.625186562260122   1.0000000
N2   N   0.444890624442582   0.389111978887959   0.622425073170139   1.0000000
N2   N   0.944751144285145   0.889049928434283   0.625041181752694   1.0000000
N2   N   0.111394502720392   0.889022136094048   0.125064632468643   1.0000000
N2   N   0.778093123485855   0.389012823890742   0.625896096746854   1.0000000
N2   N   0.444749333783762   0.889041333558546   0.125020357966598   1.0000000
N2   N   0.278103033016783   0.389073538138290   0.124851461849308   1.0000000
N2   N   0.278076898454559   0.555731201474032   0.124682481880771   1.0000000
N2   N   0.611479472413862   0.389000791156726   0.123054300339437   1.0000000
N2   N   0.778095420751208   0.889069429310725   0.124741944675869   1.0000000
N2   N   0.944751144285145   0.389034549184196   0.124958818247305   1.0000000
N2   N   0.111394502720392   0.555705699959672   0.624935367531357   1.0000000
N2   N   0.278076898454559   0.055679030313862   0.625317518119229   1.0000000
N2   N   0.778057831651263   0.555695582492311   0.626145722004353   1.0000000
N2   N   0.611427959563314   0.055689761020297   0.625186562260122   1.0000000
N2   N   0.944773485061144   0.055722165141289   0.625001808379622   1.0000000
N2   N   0.056660346517237   0.111841345088367   0.375000000000000   1.0000000
N2   N   0.554079121290645   0.625442981373119   0.375000000000000   1.0000000
N2   N   0.384894595239947   0.100889707127126   0.375000000000000   1.0000000
N2   N   0.882875080112520   0.608104206722931   0.375000000000000   1.0000000
N2   N   0.722797953787543   0.109827808232335   0.375000000000000   1.0000000
N2   N   0.055689370238566   0.777845975393449   0.875000000000000   1.0000000
N2   N   0.389022289685289   0.777844364429298   0.875000000000000   1.0000000
N2   N   0.222356146468128   0.277844739900735   0.875000000000000   1.0000000
N2   N   0.722359109672414   0.777847272053580   0.875000000000000   1.0000000
N2   N   0.555687412970450   0.277842043878403   0.875000000000000   1.0000000
N2   N   0.889026806648100   0.277846884565501   0.875000000000000   1.0000000
N2   N   0.217559376068142   0.775446354700738   0.375000000000000   1.0000000
N2   N   0.056660346517237   0.278152334762205   0.375000000000000   1.0000000
N2   N   0.384239238216660   0.261171493988609   0.375000000000000   1.0000000
N2   N   0.554002859782638   0.783828336912741   0.375000000000000   1.0000000
N2   N   0.887611446903140   0.778526149888903   0.375000000000000   1.0000000
N2   N   0.722640007940731   0.273812666123052   0.375000000000000   1.0000000
N2   N   0.055689143334463   0.944512260031806   0.875000000000000   1.0000000
N2   N   0.389022289685289   0.944511258589332   0.875000000000000   1.0000000
N2   N   0.222354681399829   0.444506788424986   0.875000000000000   1.0000000
N2   N   0.555675948230853   0.444504640782094   0.875000000000000   1.0000000
N2   N   0.722356663054131   0.944512314045623   0.875000000000000   1.0000000
N2   N   0.889028699916290   0.444512706216840   0.875000000000000   1.0000000
N2   N   0.053641393138884   0.443956014549094   0.375000000000000   1.0000000
N2   N   0.217861820567163   0.940062282164070   0.375000000000000   1.0000000
N2   N   0.553995830569930   0.943664581951626   0.375000000000000   1.0000000
N2   N   0.384239238216660   0.456401077561386   0.375000000000000   1.0000000
N2   N   0.889682672368734   0.946123728904484   0.375000000000000   1.0000000
N2   N   0.720608735518199   0.439003738415346   0.375000000000000   1.0000000
N2   N   0.222354714210263   0.611174527065271   0.875000000000000   1.0000000
N2   N   0.055688553945006   0.111177657979599   0.875000000000000   1.0000000
N2   N   0.555687412970450   0.611178702425388   0.875000000000000   1.0000000
N2   N   0.389024240787565   0.111183411697786   0.875000000000000   1.0000000
N2   N   0.889025779938380   0.611179556635854   0.875000000000000   1.0000000
N2   N   0.050860339722787   0.609284134975293   0.375000000000000   1.0000000
N2   N   0.722356663054131   0.111177682341843   0.875000000000000   1.0000000
N2   N   0.219423205885204   0.106950342731449   0.375000000000000   1.0000000
N2   N   0.384894595239947   0.617338221446156   0.375000000000000   1.0000000
N2   N   0.720608735518199   0.614938330436190   0.375000000000000   1.0000000
N2   N   0.554002859782638   0.103507856203239   0.375000000000000   1.0000000
N2   N   0.389024240787565   0.611174162423121   0.875000000000000   1.0000000
N2   N   0.890221687894922   0.111777510614132   0.375000000000000   1.0000000
N2   N   0.222354637108570   0.777843985220954   0.875000000000000   1.0000000
N2   N   0.055688553945006   0.277844229298742   0.875000000000000   1.0000000
N2   N   0.389026471528406   0.277855780859706   0.875000000000000   1.0000000
N2   N   0.555688266139184   0.777846622329453   0.875000000000000   1.0000000
N2   N   0.889028699916290   0.777849327032792   0.875000000000000   1.0000000
N2   N   0.722359109672414   0.277845170952171   0.875000000000000   1.0000000
N2   N   0.050860339722787   0.774909538080828   0.375000000000000   1.0000000
N2   N   0.385191834533147   0.778521379542329   0.375000000000000   1.0000000
N2   N   0.224631409996705   0.278982371665016   0.375000000000000   1.0000000
N2   N   0.722640007940731   0.782160675151008   0.375000000000000   1.0000000
N2   N   0.554079121290645   0.261969473250854   0.375000000000000   1.0000000
N2   N   0.889682672368734   0.276892276797585   0.375000000000000   1.0000000
N2   N   0.055689143334463   0.444510216635978   0.875000000000000   1.0000000
N2   N   0.222354714210263   0.944513520478327   0.875000000000000   1.0000000
N2   N   0.555686969769340   0.944510151551336   0.875000000000000   1.0000000
N2   N   0.389026471528406   0.444504024002043   0.875000000000000   1.0000000
N2   N   0.889026806648100   0.944513255415934   0.875000000000000   1.0000000
N2   N   0.053641393138884   0.943018711923125   0.375000000000000   1.0000000
N2   N   0.722358555631423   0.444511457851244   0.875000000000000   1.0000000
N2   N   0.385191834533147   0.940003788324154   0.375000000000000   1.0000000
N2   N   0.219423205885204   0.445806196487084   0.375000000000000   1.0000000
N2   N   0.217861820567163   0.611132871736430   0.375000000000000   1.0000000
N2   N   0.722797953787543   0.946303478888546   0.375000000000000   1.0000000
N2   N   0.887611446903140   0.442418630347567   0.375000000000000   1.0000000
N2   N   0.055689370238566   0.611176728178459   0.875000000000000   1.0000000
N2   N   0.222354681399829   0.111181226308179   0.875000000000000   1.0000000
N2   N   0.722358555631423   0.611180431113515   0.875000000000000   1.0000000
N2   N   0.555688266139184   0.111174977143074   0.875000000000000   1.0000000
N2   N   0.889025187636245   0.111179260484790   0.875000000000000   1.0000000
B2   B   0.109733910547843   0.053913257228161   0.375000000000000   1.0000000
B2   B   0.613403129169734   0.578501309449740   0.375000000000000   1.0000000
B2   B   0.442363071252776   0.049080882327455   0.375000000000000   1.0000000
B2   B   0.940079877846988   0.553396617614046   0.375000000000000   1.0000000
B2   B   0.779430840616229   0.056382086974783   0.375000000000000   1.0000000
B2   B   0.111250686722459   0.722292010027894   0.875000000000000   1.0000000
B2   B   0.444570624752886   0.722284988392019   0.875000000000000   1.0000000
B2   B   0.277889531390164   0.222283675192981   0.875000000000000   1.0000000
B2   B   0.777925906188427   0.722310078738226   0.875000000000000   1.0000000
B2   B   0.611244554540045   0.222276203115926   0.875000000000000   1.0000000
B2   B   0.944591577679481   0.222290409389963   0.875000000000000   1.0000000
B2   B   0.273973565776325   0.721598546448738   0.375000000000000   1.0000000
B2   B   0.113585506531660   0.223459419932498   0.375000000000000   1.0000000
B2   B   0.439959317921933   0.209363853349166   0.375000000000000   1.0000000
B2   B   0.611758275819490   0.733197241214330   0.375000000000000   1.0000000
B2   B   0.940079877846988   0.720016593566278   0.375000000000000   1.0000000
B2   B   0.779162226911461   0.220223444458019   0.375000000000000   1.0000000
B2   B   0.111249836226191   0.888968310641256   0.875000000000000   1.0000000
B2   B   0.444574432480753   0.888953882907045   0.875000000000000   1.0000000
B2   B   0.277889531390164   0.388939189530512   0.875000000000000   1.0000000
B2   B   0.611246036173542   0.388933718668546   0.875000000000000   1.0000000
B2   B   0.777925184074327   0.888973771007298   0.875000000000000   1.0000000
B2   B   0.944593607393990   0.388950865751180   0.875000000000000   1.0000000
B2   B   0.109733910547843   0.389153986653018   0.375000000000000   1.0000000
B2   B   0.273973565776325   0.885708352660907   0.375000000000000   1.0000000
B2   B   0.611552318311820   0.892366032348921   0.375000000000000   1.0000000
B2   B   0.943629662989295   0.889348835226998   0.375000000000000   1.0000000
B2   B   0.777901947192267   0.385088352470229   0.375000000000000   1.0000000
B2   B   0.277902372581990   0.555607846855218   0.875000000000000   1.0000000
B2   B   0.111246912780373   0.055632903204298   0.875000000000000   1.0000000
B2   B   0.611246036173542   0.555645650838326   0.875000000000000   1.0000000
B2   B   0.444570624752886   0.055618969694203   0.875000000000000   1.0000000
B2   B   0.944593650230729   0.555623257918015   0.875000000000000   1.0000000
B2   B   0.107280657146865   0.554694312661121   0.375000000000000   1.0000000
B2   B   0.777924134700401   0.055628734016861   0.875000000000000   1.0000000
B2   B   0.274012247975471   0.050398957792244   0.375000000000000   1.0000000
B2   B   0.439959317921933   0.563928797906110   0.375000000000000   1.0000000
B2   B   0.771475606713834   0.552404470023577   0.375000000000000   1.0000000
B2   B   0.611552318311820   0.052519619296226   0.375000000000000   1.0000000
B2   B   0.444562376147404   0.555615965391780   0.875000000000000   1.0000000
B2   B   0.946078418951170   0.056991765185104   0.375000000000000   1.0000000
B2   B   0.277908508792539   0.722283099794836   0.875000000000000   1.0000000
B2   B   0.111244738493234   0.222289035913282   0.875000000000000   1.0000000
B2   B   0.444562376147404   0.222279744088958   0.875000000000000   1.0000000
B2   B   0.611244554540045   0.722301684757448   0.875000000000000   1.0000000
B2   B   0.944593650230729   0.722303725646058   0.875000000000000   1.0000000
B2   B   0.777925184074327   0.222284746400366   0.875000000000000   1.0000000
B2   B   0.106666735224643   0.720000034278983   0.375000000000000   1.0000000
B2   B   0.442363071252776   0.726615522258663   0.375000000000000   1.0000000
B2   B   0.277150249727937   0.218639769106897   0.375000000000000   1.0000000
B2   B   0.777901947192267   0.726146928055359   0.375000000000000   1.0000000
B2   B   0.611758275819490   0.211894367938490   0.375000000000000   1.0000000
B2   B   0.946078418951170   0.222419987099402   0.375000000000000   1.0000000
B2   B   0.111246912780373   0.388947342909410   0.875000000000000   1.0000000
B2   B   0.277908508792539   0.888958742331033   0.875000000000000   1.0000000
B2   B   0.611247663887615   0.888962174014412   0.875000000000000   1.0000000
B2   B   0.444534617760043   0.388933975546690   0.875000000000000   1.0000000
B2   B   0.944593607393990   0.888976074976133   0.875000000000000   1.0000000
B2   B   0.107280657146865   0.885919677819072   0.375000000000000   1.0000000
B2   B   0.777925906188427   0.388949160783522   0.875000000000000   1.0000000
B2   B   0.442455038768036   0.887894186050690   0.375000000000000   1.0000000
B2   B   0.277150249727937   0.391843813954376   0.375000000000000   1.0000000
B2   B   0.274012247975471   0.556946623516570   0.375000000000000   1.0000000
B2   B   0.613403129169734   0.368235153053315   0.375000000000000   1.0000000
B2   B   0.779162226911461   0.892272115786770   0.375000000000000   1.0000000
B2   B   0.943629662989295   0.387614161095626   0.375000000000000   1.0000000
B2   B   0.111249836226191   0.555614858918276   0.875000000000000   1.0000000
B2   B   0.277902372581990   0.055627859060108   0.875000000000000   1.0000000
B2   B   0.777923154383410   0.555628243858372   0.875000000000000   1.0000000
B2   B   0.611247663887615   0.055618823206524   0.875000000000000   1.0000000
B2   B   0.944591577679481   0.055634501622845   0.875000000000000   1.0000000
B2   B   0.055914155340276   0.111304768977260   0.124951091041703   1.0000000
B2   B   0.555807863969696   0.611373600160322   0.123646099003711   1.0000000
B2   B   0.389140955188330   0.111169511720649   0.124506730995515   1.0000000
B2   B   0.889228694604184   0.611281013968772   0.124525247583215   1.0000000
B2   B   0.722542217395752   0.111240177750761   0.124875476228959   1.0000000
B2   B   0.055874949876072   0.777948306585047   0.624913405658425   1.0000000
B2   B   0.389170891331902   0.777940198095753   0.625083174335396   1.0000000
B2   B   0.222567368296831   0.277950350815083   0.624895042341466   1.0000000
B2   B   0.722530708703978   0.778006286344883   0.625816300118363   1.0000000
B2   B   0.555807863969696   0.277767597142700   0.626353900996290   1.0000000
B2   B   0.889231056757417   0.277911553882775   0.625071002756900   1.0000000
B2   B   0.222521034708034   0.777927184020686   0.125146284635971   1.0000000
B2   B   0.055914155340276   0.277942719696351   0.124951091041703   1.0000000
B2   B   0.389042813291306   0.277648148556093   0.125822216492281   1.0000000
B2   B   0.555831961410827   0.777983590417901   0.124435502751274   1.0000000
B2   B   0.889230893325751   0.777991842348253   0.124650269880784   1.0000000
B2   B   0.722530708703978   0.277857755692430   0.124183699881638   1.0000000
B2   B   0.055890360696187   0.944639926996050   0.625013386912824   1.0000000
B2   B   0.389170891331902   0.944564026569478   0.625083174335396   1.0000000
B2   B   0.222534629497969   0.444603732468229   0.625148463826786   1.0000000
B2   B   0.556099519568301   0.444716426450818   0.626238868520475   1.0000000
B2   B   0.722542217395752   0.944635372978334   0.625124523771034   1.0000000
B2   B   0.889230893325751   0.444572384310821   0.625349730119208   1.0000000
B2   B   0.055890360696187   0.444583767033466   0.124986613087169   1.0000000
B2   B   0.222519835365387   0.944593684589035   0.124978783692681   1.0000000
B2   B   0.555853312264244   0.944593322798786   0.124923006536042   1.0000000
B2   B   0.389042813291306   0.444727998068547   0.125822216492281   1.0000000
B2   B   0.889231056757417   0.944652836207979   0.124928997243100   1.0000000
B2   B   0.722623930605719   0.444584430471059   0.123341891605152   1.0000000
B2   B   0.222519835365387   0.611259484109696   0.625021216307326   1.0000000
B2   B   0.055914155340276   0.111304768977260   0.625048908958290   1.0000000
B2   B   0.555807863969696   0.611373600160322   0.626353900996290   1.0000000
B2   B   0.389140955188330   0.111169511720649   0.625493269004485   1.0000000
B2   B   0.889228694604184   0.611281013968772   0.625474752416785   1.0000000
B2   B   0.055874949876072   0.611259976624346   0.125086594341568   1.0000000
B2   B   0.722542217395752   0.111240177750761   0.625124523771034   1.0000000
B2   B   0.222534629497969   0.111264230363076   0.124851536173221   1.0000000
B2   B   0.389140955188330   0.611304776801029   0.124506730995515   1.0000000
B2   B   0.722623930605719   0.611372833467990   0.123341891605152   1.0000000
B2   B   0.555831961410827   0.111181704326253   0.124435502751274   1.0000000
B2   B   0.389140955188330   0.611304776801029   0.625493269004485   1.0000000
B2   B   0.889237979156984   0.111285656245167   0.125050760306718   1.0000000
B2   B   0.222521034708034   0.777927184020686   0.624853715364029   1.0000000
B2   B   0.055914155340276   0.277942719696351   0.625048908958290   1.0000000
B2   B   0.389042813291306   0.277648148556093   0.624177783507719   1.0000000
B2   B   0.555831961410827   0.777983590417901   0.625564497248720   1.0000000
B2   B   0.889230893325751   0.777991842348253   0.625349730119208   1.0000000
B2   B   0.722530708703978   0.277857755692430   0.625816300118363   1.0000000
B2   B   0.055874949876072   0.777948306585047   0.125086594341568   1.0000000
B2   B   0.389170891331902   0.777940198095753   0.124916825664604   1.0000000
B2   B   0.222567368296831   0.277950350815083   0.125104957658543   1.0000000
B2   B   0.722530708703978   0.778006286344883   0.124183699881638   1.0000000
B2   B   0.555807863969696   0.277767597142700   0.123646099003711   1.0000000
B2   B   0.889231056757417   0.277911553882775   0.124928997243100   1.0000000
B2   B   0.055890360696187   0.444583767033466   0.625013386912824   1.0000000
B2   B   0.222519835365387   0.944593684589035   0.625021216307326   1.0000000
B2   B   0.555853312264244   0.944593322798786   0.625076993463958   1.0000000
B2   B   0.389042813291306   0.444727998068547   0.624177783507719   1.0000000
B2   B   0.889231056757417   0.944652836207979   0.625071002756900   1.0000000
B2   B   0.055890360696187   0.944639926996050   0.124986613087169   1.0000000
B2   B   0.722623930605719   0.444584430471059   0.626658108394841   1.0000000
B2   B   0.389170891331902   0.944564026569478   0.124916825664604   1.0000000
B2   B   0.222534629497969   0.444603732468229   0.124851536173221   1.0000000
B2   B   0.222519835365387   0.611259484109696   0.124978783692681   1.0000000
B2   B   0.556099519568301   0.444716426450818   0.123761131479524   1.0000000
B2   B   0.722542217395752   0.944635372978334   0.124875476228959   1.0000000
B2   B   0.889230893325751   0.444572384310821   0.124650269880784   1.0000000
B2   B   0.055874949876072   0.611259976624346   0.624913405658425   1.0000000
B2   B   0.222534629497969   0.111264230363076   0.625148463826786   1.0000000
B2   B   0.722623930605719   0.611372833467990   0.626658108394841   1.0000000
B2   B   0.555831961410827   0.111181704326253   0.625564497248720   1.0000000
B2   B   0.889237979156984   0.111285656245167   0.624949239693289   1.0000000


