data_1
_audit_creation_method   'vasp2cif'
_cell_length_a    14.93631414619966
_cell_length_b    14.936314146199727
_cell_length_c    13.341276283792837
_cell_angle_alpha    90.0
_cell_angle_beta    90.0
_cell_angle_gamma    119.99999999999984

_symmetry_space_group_name_H-M    'P 1'
loop_
_atom_site_label
_atom_site_type_symbol
_atom_site_fract_x
_atom_site_fract_y
_atom_site_fract_z
_atom_site_occupancy
Sb2   Sb   0.504778913258661   0.419056123295995   0.375000000000000   1.0000000
N2   N   0.110985116682062   0.055484916244085   0.126310829698691   1.0000000
N2   N   0.611109091162131   0.555669659604298   0.122136529135798   1.0000000
N2   N   0.444382374175136   0.055514892077699   0.125947132431240   1.0000000
N2   N   0.944318281509724   0.555486637084855   0.126023811702542   1.0000000
N2   N   0.777720706678923   0.055527020006342   0.125950808114649   1.0000000
N2   N   0.110997625715883   0.722165479524324   0.623918758403229   1.0000000
N2   N   0.444382374175136   0.722200815431071   0.624052867568560   1.0000000
N2   N   0.277575072945331   0.222104205179064   0.625172627784348   1.0000000
N2   N   0.777681029912487   0.722217712611324   0.624738226524931   1.0000000
N2   N   0.611048450127950   0.222140386419376   0.624897667221379   1.0000000
N2   N   0.944353767486416   0.222170439729875   0.623817761952122   1.0000000
N2   N   0.277694313276567   0.722183702264953   0.126088070928157   1.0000000
N2   N   0.110965909802541   0.222149621567958   0.126104806966113   1.0000000
N2   N   0.444377348129978   0.222181269554350   0.124439689777378   1.0000000
N2   N   0.611048450127950   0.722241397041698   0.125102332778694   1.0000000
N2   N   0.944318281509724   0.722164977756981   0.126023811702542   1.0000000
N2   N   0.777710711883944   0.222152187299669   0.125861309601128   1.0000000
N2   N   0.111006511103711   0.888835619826808   0.623771096737315   1.0000000
N2   N   0.444383066930904   0.888858200132285   0.623911902661464   1.0000000
N2   N   0.277575072945331   0.388804201099343   0.625172627784348   1.0000000
N2   N   0.611109091162131   0.388772764890153   0.627863470864120   1.0000000
N2   N   0.777710711883944   0.888891857916934   0.624138690399134   1.0000000
N2   N   0.944341938772127   0.388826706977411   0.623809105379408   1.0000000
N2   N   0.110985116682062   0.388833533771329   0.126310829698691   1.0000000
N2   N   0.277694313276567   0.888843944344642   0.126088070928157   1.0000000
N2   N   0.611058237111840   0.888880357318874   0.125946641924845   1.0000000
N2   N   0.444022923243236   0.388678128288250   0.121036028651098   1.0000000
N2   N   0.944341938772127   0.888848565127422   0.126190894620676   1.0000000
N2   N   0.777681029912487   0.388796650634301   0.125261773475354   1.0000000
N2   N   0.277695734459703   0.555518544606851   0.623978018053208   1.0000000
N2   N   0.110985116682062   0.055484916244085   0.623689170301400   1.0000000
N2   N   0.611109091162131   0.555669659604298   0.627863470864120   1.0000000
N2   N   0.444382374175136   0.055514892077699   0.624052867568560   1.0000000
N2   N   0.944318281509724   0.555486637084855   0.623976188297505   1.0000000
N2   N   0.111006511103711   0.555504224610201   0.126228903262851   1.0000000
N2   N   0.777720706678923   0.055527020006343   0.624049191885458   1.0000000
N2   N   0.277695734459703   0.055510523186232   0.126021981946279   1.0000000
N2   N   0.444377348129978   0.555529411909248   0.124439689777378   1.0000000
N2   N   0.777653629988787   0.555493481660671   0.124864617799991   1.0000000
N2   N   0.611058237111840   0.055511213126799   0.125946641924845   1.0000000
N2   N   0.444377348129978   0.555529411909248   0.625560310222496   1.0000000
N2   N   0.944353767486416   0.055516661089114   0.126182238048071   1.0000000
N2   N   0.277694313276567   0.722183702264953   0.623911929071936   1.0000000
N2   N   0.110965909802541   0.222149621567958   0.623895193034257   1.0000000
N2   N   0.444377348129978   0.222181269554350   0.625560310222496   1.0000000
N2   N   0.611048450127950   0.722241397041698   0.624897667221379   1.0000000
N2   N   0.944318281509724   0.722164977756981   0.623976188297505   1.0000000
N2   N   0.777710711883944   0.222152187299669   0.624138690399134   1.0000000
N2   N   0.110997625715883   0.722165479524324   0.126081241597004   1.0000000
N2   N   0.444382374175136   0.722200815431071   0.125947132431240   1.0000000
N2   N   0.277575072945331   0.222104205179064   0.124827372215190   1.0000000
N2   N   0.777681029912487   0.722217712611324   0.125261773475355   1.0000000
N2   N   0.611048450127950   0.222140386419376   0.125102332778694   1.0000000
N2   N   0.944353767486416   0.222170439729875   0.126182238048071   1.0000000
N2   N   0.110985116682062   0.388833533771329   0.623689170301400   1.0000000
N2   N   0.277694313276567   0.888843944344642   0.623911929071936   1.0000000
N2   N   0.611058237111840   0.888880357318874   0.624053358075661   1.0000000
N2   N   0.444022923243236   0.388678128288250   0.628963971349286   1.0000000
N2   N   0.944341938772127   0.888848565127422   0.623809105379408   1.0000000
N2   N   0.111006511103711   0.888835619826808   0.126228903262851   1.0000000
N2   N   0.777681029912487   0.388796650634301   0.624738226524931   1.0000000
N2   N   0.444383066930904   0.888858200132285   0.126088097338261   1.0000000
N2   N   0.277575072945331   0.388804201099343   0.124827372215191   1.0000000
N2   N   0.277695734459703   0.555518544606851   0.126021981946279   1.0000000
N2   N   0.611109091162131   0.388772764890153   0.122136529135801   1.0000000
N2   N   0.777710711883944   0.888891857916934   0.125861309601128   1.0000000
N2   N   0.944341938772127   0.388826706977411   0.126190894620676   1.0000000
N2   N   0.111006511103714   0.555504224610201   0.623771096737315   1.0000000
N2   N   0.277695734459703   0.055510523186232   0.623978018053208   1.0000000
N2   N   0.777653629988787   0.555493481660671   0.625135382200200   1.0000000
N2   N   0.611058237111840   0.055511213126799   0.624053358075661   1.0000000
N2   N   0.944353767486416   0.055516661089114   0.623817761952122   1.0000000
N2   N   0.057452158813884   0.112284496207351   0.375000000000000   1.0000000
N2   N   0.554060933516389   0.624232132600549   0.375000000000000   1.0000000
N2   N   0.385630578975747   0.102499972081527   0.375000000000000   1.0000000
N2   N   0.883811591305080   0.608572462320364   0.375000000000000   1.0000000
N2   N   0.723029380289119   0.110178603319120   0.375000000000000   1.0000000
N2   N   0.055936018821593   0.777966137009305   0.875000000000000   1.0000000
N2   N   0.389254099524663   0.777966341656689   0.875000000000000   1.0000000
N2   N   0.222596633838608   0.277964983585919   0.875000000000000   1.0000000
N2   N   0.722594641094742   0.777960151646838   0.875000000000000   1.0000000
N2   N   0.555917079650186   0.277950435061464   0.875000000000000   1.0000000
N2   N   0.889265170397668   0.277969787820313   0.875000000000000   1.0000000
N2   N   0.218269156190577   0.775801244762599   0.375000000000000   1.0000000
N2   N   0.057452158813884   0.278500995939980   0.375000000000000   1.0000000
N2   N   0.388659779264487   0.267178437969526   0.375000000000000   1.0000000
N2   N   0.554267260936381   0.783226168048742   0.375000000000000   1.0000000
N2   N   0.887536857408235   0.778106258631498   0.375000000000000   1.0000000
N2   N   0.722739374506160   0.274529169316022   0.375000000000000   1.0000000
N2   N   0.055929345847741   0.944625399073576   0.875000000000000   1.0000000
N2   N   0.389254099524663   0.944621091199964   0.875000000000000   1.0000000
N2   N   0.222590538943666   0.444642251733857   0.875000000000000   1.0000000
N2   N   0.555930473349265   0.444631903341297   0.875000000000000   1.0000000
N2   N   0.722593528902724   0.944629463625996   0.875000000000000   1.0000000
N2   N   0.889270900541220   0.444639969211871   0.875000000000000   1.0000000
N2   N   0.054490378644205   0.444122432391733   0.375000000000000   1.0000000
N2   N   0.218692169000740   0.940852377360295   0.375000000000000   1.0000000
N2   N   0.554339562499984   0.943836447916808   0.375000000000000   1.0000000
N2   N   0.388659779264487   0.454814674628973   0.375000000000000   1.0000000
N2   N   0.890025086710095   0.946101452600514   0.375000000000000   1.0000000
N2   N   0.719945021324584   0.440035668181344   0.375000000000000   1.0000000
N2   N   0.222588534436724   0.611303529249308   0.875000000000000   1.0000000
N2   N   0.055933049114804   0.111294998173078   0.875000000000000   1.0000000
N2   N   0.555917079650186   0.611299977922016   0.875000000000000   1.0000000
N2   N   0.389249130562385   0.111274810038702   0.875000000000000   1.0000000
N2   N   0.889281183239349   0.611307258286718   0.875000000000000   1.0000000
N2   N   0.051635821522249   0.609548486587402   0.375000000000000   1.0000000
N2   N   0.722593528902724   0.111297398611345   0.875000000000000   1.0000000
N2   N   0.221547588475513   0.108919541986994   0.375000000000000   1.0000000
N2   N   0.385630578975747   0.616463940227744   0.375000000000000   1.0000000
N2   N   0.719945021324584   0.613242686475500   0.375000000000000   1.0000000
N2   N   0.554267260936381   0.104374426220800   0.375000000000000   1.0000000
N2   N   0.389249130562385   0.611307653857448   0.875000000000000   1.0000000
N2   N   0.890627292553692   0.111980312943591   0.375000000000000   1.0000000
N2   N   0.222593461145871   0.777963397239585   0.875000000000000   1.0000000
N2   N   0.055933049114804   0.277971384275288   0.875000000000000   1.0000000
N2   N   0.389250918296256   0.277938100667039   0.875000000000000   1.0000000
N2   N   0.555920066486236   0.777963855970800   0.875000000000000   1.0000000
N2   N   0.889270900541220   0.777964264661942   0.875000000000000   1.0000000
N2   N   0.722594641094742   0.277967822782112   0.875000000000000   1.0000000
N2   N   0.051635821522248   0.775420668267835   0.375000000000000   1.0000000
N2   N   0.385759680197859   0.778462589982484   0.375000000000000   1.0000000
N2   N   0.225820324337909   0.279576828835636   0.375000000000000   1.0000000
N2   N   0.722739374506160   0.781543538523694   0.375000000000000   1.0000000
N2   N   0.554060933516389   0.263162134249957   0.375000000000000   1.0000000
N2   N   0.890025086710095   0.277256967443104   0.375000000000000   1.0000000
N2   N   0.055929345847743   0.444637280107588   0.875000000000000   1.0000000
N2   N   0.222588534436724   0.944618338519855   0.875000000000000   1.0000000
N2   N   0.555921629754414   0.944627481543437   0.875000000000000   1.0000000
N2   N   0.389250918296256   0.444646150962510   0.875000000000000   1.0000000
N2   N   0.889265170397668   0.944628715911372   0.875000000000000   1.0000000
N2   N   0.054490378644205   0.943701279585632   0.375000000000000   1.0000000
N2   N   0.722614481168202   0.444644854825761   0.875000000000000   1.0000000
N2   N   0.385759680197859   0.940630423548282   0.375000000000000   1.0000000
N2   N   0.221547588475515   0.445961379821911   0.375000000000000   1.0000000
N2   N   0.218692169000740   0.611173124974087   0.375000000000000   1.0000000
N2   N   0.723029380289119   0.946184110303552   0.375000000000000   1.0000000
N2   N   0.887536857408236   0.442763932110666   0.375000000000000   1.0000000
N2   N   0.055936018821593   0.611303215146514   0.875000000000000   1.0000000
N2   N   0.222590538943666   0.111281620543016   0.875000000000000   1.0000000
N2   N   0.722614481168151   0.611302959675473   0.875000000000000   1.0000000
N2   N   0.555920066486236   0.111289543848865   0.875000000000000   1.0000000
N2   N   0.889265892942878   0.111299613137944   0.875000000000000   1.0000000
B2   B   0.111378977668785   0.055093285513970   0.375000000000000   1.0000000
B2   B   0.609558625881775   0.571249726031043   0.375000000000000   1.0000000
B2   B   0.442770488765325   0.050264713449600   0.375000000000000   1.0000000
B2   B   0.940427922912192   0.553764897330854   0.375000000000000   1.0000000
B2   B   0.779530471746144   0.056431902539619   0.375000000000000   1.0000000
B2   B   0.111478761237651   0.722406047286149   0.875000000000000   1.0000000
B2   B   0.444810421379142   0.722374262262563   0.875000000000000   1.0000000
B2   B   0.278216264558498   0.222451571621820   0.875000000000000   1.0000000
B2   B   0.778107617831263   0.722339849013642   0.875000000000000   1.0000000
B2   B   0.611445353442885   0.222449583057372   0.875000000000000   1.0000000
B2   B   0.944837874849807   0.222428106884636   0.875000000000000   1.0000000
B2   B   0.274626123789273   0.721703591147519   0.375000000000000   1.0000000
B2   B   0.114877004983729   0.224105169158406   0.375000000000000   1.0000000
B2   B   0.441923233275903   0.212027271994030   0.375000000000000   1.0000000
B2   B   0.611451937410629   0.731190973624028   0.375000000000000   1.0000000
B2   B   0.940427922912192   0.719996358914392   0.375000000000000   1.0000000
B2   B   0.779097231251185   0.220962097428350   0.375000000000000   1.0000000
B2   B   0.111488875958535   0.889077245958950   0.875000000000000   1.0000000
B2   B   0.444809418853950   0.889071376093459   0.875000000000000   1.0000000
B2   B   0.278216264558498   0.389098026270748   0.875000000000000   1.0000000
B2   B   0.611427041962402   0.389104396160285   0.875000000000000   1.0000000
B2   B   0.778131388456645   0.889031851460150   0.875000000000000   1.0000000
B2   B   0.944811900614262   0.389091087550119   0.875000000000000   1.0000000
B2   B   0.111378977668785   0.389619025488375   0.375000000000000   1.0000000
B2   B   0.274626123789273   0.886255865975589   0.375000000000000   1.0000000
B2   B   0.611580186383215   0.891846263663889   0.375000000000000   1.0000000
B2   B   0.943892163201742   0.889082890062661   0.375000000000000   1.0000000
B2   B   0.776728797728548   0.386146182995706   0.375000000000000   1.0000000
B2   B   0.278173514357320   0.555734723667184   0.875000000000000   1.0000000
B2   B   0.111516049691339   0.055759917761844   0.875000000000000   1.0000000
B2   B   0.611427041962402   0.555655979135885   0.875000000000000   1.0000000
B2   B   0.444810421379142   0.055769492450546   0.875000000000000   1.0000000
B2   B   0.944796446676826   0.555742496490219   0.875000000000000   1.0000000
B2   B   0.108060179335493   0.554923617938650   0.375000000000000   1.0000000
B2   B   0.778147344569634   0.055740338951544   0.875000000000000   1.0000000
B2   B   0.275256015281646   0.051620628607492   0.375000000000000   1.0000000
B2   B   0.441923233275901   0.563229294616018   0.375000000000000   1.0000000
B2   B   0.771311456371370   0.552322394852156   0.375000000000000   1.0000000
B2   B   0.611580186383215   0.053067256051751   0.375000000000000   1.0000000
B2   B   0.444827549001583   0.555703568813133   0.875000000000000   1.0000000
B2   B   0.946593334581281   0.057084666659475   0.375000000000000   1.0000000
B2   B   0.278153784401080   0.722402470005368   0.875000000000000   1.0000000
B2   B   0.111541116775580   0.222437225054381   0.875000000000000   1.0000000
B2   B   0.444827549001583   0.222457313521738   0.875000000000000   1.0000000
B2   B   0.611445353442885   0.722329103719309   0.875000000000000   1.0000000
B2   B   0.944796446676826   0.722387283519143   0.875000000000000   1.0000000
B2   B   0.778131388456645   0.222432870329071   0.875000000000000   1.0000000
B2   B   0.107268480935065   0.720300907133529   0.375000000000000   1.0000000
B2   B   0.442770488765325   0.725839108649429   0.375000000000000   1.0000000
B2   B   0.280600599324436   0.221439287736146   0.375000000000000   1.0000000
B2   B   0.776728797728548   0.723915948066891   0.375000000000000   1.0000000
B2   B   0.611451937410629   0.213594297120751   0.375000000000000   1.0000000
B2   B   0.946593334581281   0.222842001254684   0.375000000000000   1.0000000
B2   B   0.111516049691339   0.389089465262983   0.875000000000000   1.0000000
B2   B   0.278153784401080   0.889084647730489   0.875000000000000   1.0000000
B2   B   0.611460975338577   0.889042548095747   0.875000000000000   1.0000000
B2   B   0.444864729716956   0.389099031525266   0.875000000000000   1.0000000
B2   B   0.944811900614262   0.889054146397104   0.875000000000000   1.0000000
B2   B   0.108060179335493   0.886469894728849   0.375000000000000   1.0000000
B2   B   0.778107617831263   0.389101102152442   0.875000000000000   1.0000000
B2   B   0.442803639165072   0.888068486249409   0.375000000000000   1.0000000
B2   B   0.280600599324436   0.392494644921533   0.375000000000000   1.0000000
B2   B   0.275256015281646   0.556968720007739   0.375000000000000   1.0000000
B2   B   0.609558625881775   0.371642233184752   0.375000000000000   1.0000000
B2   B   0.779097231251185   0.891468467156689   0.375000000000000   1.0000000
B2   B   0.943892163201742   0.388142606472335   0.375000000000000   1.0000000
B2   B   0.111488875958535   0.555744963331828   0.875000000000000   1.0000000
B2   B   0.278173514357320   0.055772124023597   0.875000000000000   1.0000000
B2   B   0.778101136488587   0.555717234910430   0.875000000000000   1.0000000
B2   B   0.611460975338577   0.055751760575676   0.875000000000000   1.0000000
B2   B   0.944837874849807   0.055743101298697   0.875000000000000   1.0000000
B2   B   0.055510264191167   0.111109459055220   0.126461370626084   1.0000000
B2   B   0.555509499760374   0.610905070804988   0.124363289224113   1.0000000
B2   B   0.388907300067253   0.111291696027116   0.125912305661453   1.0000000
B2   B   0.888564873549045   0.610949103441634   0.125938910329531   1.0000000
B2   B   0.722151278701861   0.111084457979944   0.126089535191733   1.0000000
B2   B   0.055383927482731   0.777711138685699   0.623708368067455   1.0000000
B2   B   0.388856841165723   0.777708802937829   0.623750987210710   1.0000000
B2   B   0.222215256394966   0.277774294864126   0.624337753279718   1.0000000
B2   B   0.722073056642398   0.777674797280762   0.624377118212069   1.0000000
B2   B   0.555509499760374   0.277937762288297   0.625636710775163   1.0000000
B2   B   0.888785773829399   0.277717508417057   0.623740549828586   1.0000000
B2   B   0.222135090615613   0.777734211974211   0.126222884630899   1.0000000
B2   B   0.055510264191167   0.277734138469463   0.126461370626084   1.0000000
B2   B   0.388825979751241   0.277882796064505   0.124044033407285   1.0000000
B2   B   0.555504731611420   0.777676841608170   0.125933293894577   1.0000000
B2   B   0.888667999464878   0.777672096009839   0.126063078223997   1.0000000
B2   B   0.722073056642398   0.277731592694924   0.125622881787133   1.0000000
B2   B   0.055456633270077   0.944431228218450   0.623513037662066   1.0000000
B2   B   0.388856841165723   0.944481371560770   0.623750987210710   1.0000000
B2   B   0.222207011602107   0.444341979493369   0.623845993142966   1.0000000
B2   B   0.555320837348529   0.444327085340929   0.625097302727103   1.0000000
B2   B   0.722151278701862   0.944400154055749   0.623910464809337   1.0000000
B2   B   0.888667999464878   0.444329236788299   0.623936921775335   1.0000000
B2   B   0.055456633270077   0.444358738385050   0.126486962338139   1.0000000
B2   B   0.222176591606458   0.944502764251195   0.126350855832289   1.0000000
B2   B   0.555510983700153   0.944422158516735   0.126192483245816   1.0000000
B2   B   0.388825979751241   0.444276517020467   0.124044033407293   1.0000000
B2   B   0.888785773829403   0.944401598744841   0.126259450171707   1.0000000
B2   B   0.721840227858915   0.444269959300179   0.124429109697557   1.0000000
B2   B   0.222176591606458   0.611007160689119   0.623649144167415   1.0000000
B2   B   0.055510264191167   0.111109459055218   0.623538629373396   1.0000000
B2   B   0.555509499760374   0.610905070804988   0.625636710775163   1.0000000
B2   B   0.388907300067253   0.111291696027117   0.624087694338942   1.0000000
B2   B   0.888564873549045   0.610949103441634   0.624061089670438   1.0000000
B2   B   0.055383927482732   0.611006122130450   0.126291631932525   1.0000000
B2   B   0.722151278701862   0.111084457979944   0.623910464809337   1.0000000
B2   B   0.222207011602107   0.111198365441883   0.126154006857417   1.0000000
B2   B   0.388907300067253   0.610948937372574   0.125912305661453   1.0000000
B2   B   0.721840227858915   0.610903601891096   0.124429109697557   1.0000000
B2   B   0.555504731611420   0.111161223335960   0.125933293894577   1.0000000
B2   B   0.388907300067253   0.610948937372574   0.624087694338942   1.0000000
B2   B   0.888825840445478   0.111079586889119   0.126265868857706   1.0000000
B2   B   0.222135090615613   0.777734211974200   0.623777115369899   1.0000000
B2   B   0.055510264191167   0.277734138469463   0.623538629373396   1.0000000
B2   B   0.388825979751241   0.277882796064503   0.625955966593785   1.0000000
B2   B   0.555504731611420   0.777676841608170   0.624066706105251   1.0000000
B2   B   0.888667999464878   0.777672096009839   0.623936921775335   1.0000000
B2   B   0.722073056642398   0.277731592694924   0.624377118212069   1.0000000
B2   B   0.055383927482731   0.777711138685699   0.126291631932525   1.0000000
B2   B   0.388856841165723   0.777708802937829   0.126249012789520   1.0000000
B2   B   0.222215256394966   0.277774294864126   0.125662246721179   1.0000000
B2   B   0.722073056642398   0.777674797280762   0.125622881787133   1.0000000
B2   B   0.555509499760374   0.277937762288297   0.124363289224260   1.0000000
B2   B   0.888785773829403   0.277717508417057   0.126259450171707   1.0000000
B2   B   0.055456633270077   0.444358738385050   0.623513037662066   1.0000000
B2   B   0.222176591606458   0.944502764251195   0.623649144167441   1.0000000
B2   B   0.555510983700153   0.944422158516735   0.623807516754336   1.0000000
B2   B   0.388825979751241   0.444276517020467   0.625955966593785   1.0000000
B2   B   0.888785773829403   0.944401598744841   0.623740549828586   1.0000000
B2   B   0.055456633270077   0.944431228218450   0.126486962338139   1.0000000
B2   B   0.721840227858915   0.444269959300179   0.625570890302219   1.0000000
B2   B   0.388856841165723   0.944481371560770   0.126249012789520   1.0000000
B2   B   0.222207011602107   0.444341979493369   0.126154006857417   1.0000000
B2   B   0.222176591606458   0.611007160689119   0.126350855832289   1.0000000
B2   B   0.555320837348529   0.444327085340929   0.124902697272644   1.0000000
B2   B   0.722151278701861   0.944400154055749   0.126089535191733   1.0000000
B2   B   0.888667999464878   0.444329236788299   0.126063078223997   1.0000000
B2   B   0.055383927482732   0.611006122130450   0.623708368067455   1.0000000
B2   B   0.222207011602107   0.111198365441890   0.623845993142966   1.0000000
B2   B   0.721840227858915   0.610903601891096   0.625570890302220   1.0000000
B2   B   0.555504731611420   0.111161223335960   0.624066706105251   1.0000000
B2   B   0.888825840445478   0.111079586889119   0.623734131142100   1.0000000


