data_1
_audit_creation_method   'vasp2cif'
_cell_length_a    17.52789999999977
_cell_length_b    17.52789999999977
_cell_length_c    15.0
_cell_angle_alpha    90.0
_cell_angle_beta    90.0
_cell_angle_gamma    119.99999999999916

_symmetry_space_group_name_H-M    'P 1'
loop_
_atom_site_label
_atom_site_type_symbol
_atom_site_fract_x
_atom_site_fract_y
_atom_site_fract_z
_atom_site_occupancy
B2   B   0.904643949553778   0.952432872380608   0.115877752093737   1.0000000
B2   B   0.904643008667844   0.095263333002815   0.117268691471681   1.0000000
B2   B   0.904632687760072   0.238062149268972   0.118665861030881   1.0000000
B2   B   0.904557415759025   0.380860312434123   0.119461743846169   1.0000000
B2   B   0.904561341451421   0.523678183148106   0.118818110976892   1.0000000
B2   B   0.904462774597842   0.666553042671411   0.115343498810944   1.0000000
B2   B   0.904700213208295   0.809651974018067   0.115336843472092   1.0000000
B2   B   0.047558767313494   0.952437896529496   0.116249705462259   1.0000000
B2   B   0.047481579923483   0.095260556815328   0.116343908275639   1.0000000
B2   B   0.047426199249055   0.238001545000423   0.117430295578448   1.0000000
B2   B   0.047521204281395   0.380809909465630   0.119358692750044   1.0000000
B2   B   0.047551005981904   0.523675311761426   0.120099244046224   1.0000000
B2   B   0.047532408799516   0.666566219710255   0.118978257145169   1.0000000
B2   B   0.047548109161149   0.809520882978151   0.117157151437145   1.0000000
B2   B   0.190525410154476   0.952479730896932   0.115539576215657   1.0000000
B2   B   0.190337795992936   0.095289714571295   0.113898407538869   1.0000000
B2   B   0.190231007481702   0.238126654912527   0.112975726616903   1.0000000
B2   B   0.190330659077326   0.380644094312706   0.114950871843620   1.0000000
B2   B   0.190499592212383   0.523544122984788   0.118100649405866   1.0000000
B2   B   0.190603213610460   0.666500989389165   0.118863398416843   1.0000000
B2   B   0.190552788157660   0.809501108843352   0.117851969577326   1.0000000
B2   B   0.333486840694745   0.952517586686442   0.115789768851658   1.0000000
B2   B   0.333478656481655   0.095595180565466   0.111826094216784   1.0000000
B2   B   0.332834153435178   0.238173048716110   0.106344685065419   1.0000000
B2   B   0.332834151624604   0.380683704627825   0.099800556987984   1.0000000
B2   B   0.333082973313847   0.523163486282728   0.108845600866115   1.0000000
B2   B   0.333631640394814   0.666351246509003   0.115015000640992   1.0000000
B2   B   0.333537752963134   0.809449126468374   0.117302287339498   1.0000000
B2   B   0.476344506287767   0.952448751155825   0.116402877999861   1.0000000
B2   B   0.476329470705564   0.095529059341747   0.114224363266640   1.0000000
B2   B   0.476464084713478   0.238745846838896   0.108169575976229   1.0000000
B2   B   0.473491759417116   0.376462451760794   0.075080658420456   1.0000000
B2   B   0.473528243290830   0.525397720890968   0.074905924902257   1.0000000
B2   B   0.476654787017553   0.666303720249654   0.108333435014716   1.0000000
B2   B   0.476435302753826   0.809381905735464   0.114845810310405   1.0000000
B2   B   0.619147668003597   0.952411504852529   0.115787460643096   1.0000000
B2   B   0.619093168505852   0.095385414647413   0.116463191138790   1.0000000
B2   B   0.619100013880892   0.238382167549731   0.113728740171316   1.0000000
B2   B   0.618779423071508   0.380898552312968   0.101469753815852   1.0000000
B2   B   0.629685732220390   0.529002086336351   0.067187977042538   1.0000000
B2   B   0.618943876884670   0.666675920360617   0.098934989759332   1.0000000
B2   B   0.619245595420763   0.809499610117751   0.111462444330662   1.0000000
B2   B   0.761891177723453   0.952465172303532   0.115028923631826   1.0000000
B2   B   0.761877757822465   0.095294885240826   0.117279291032623   1.0000000
B2   B   0.761810310771453   0.238108256140897   0.117472663628298   1.0000000
B2   B   0.761538289333682   0.380802960962273   0.115598127406966   1.0000000
B2   B   0.761943928126627   0.523531581788137   0.108446878972151   1.0000000
B2   B   0.762118051042090   0.667255410167907   0.106231634232516   1.0000000
B2   B   0.761715221568360   0.809615818139111   0.111502002924017   1.0000000
Si2   Si   0.522345567856447   0.475071059278260   0.985429770026480   1.0000000
N2   N   0.952436116037589   0.904958176961254   0.116217724979946   1.0000000
N2   N   0.952227290711839   0.047657864529943   0.116843029929262   1.0000000
N2   N   0.952140109230319   0.190407604447367   0.118145084968831   1.0000000
N2   N   0.952221932983147   0.333243448449330   0.119613043854132   1.0000000
N2   N   0.952371882372618   0.476120256190350   0.120152850844305   1.0000000
N2   N   0.952442020361539   0.619055881586303   0.118368079192215   1.0000000
N2   N   0.952483215085927   0.762045409235626   0.116345253321540   1.0000000
N2   N   0.095240172036835   0.904775545292033   0.116515093689665   1.0000000
N2   N   0.094996435198848   0.047509846590679   0.115754700466205   1.0000000
N2   N   0.094787926552155   0.190282283923006   0.116125594351812   1.0000000
N2   N   0.094847500261025   0.333094639946182   0.118058373021591   1.0000000
N2   N   0.095083923987154   0.476068227326771   0.119858803314945   1.0000000
N2   N   0.095272784356825   0.619003168563714   0.119837602870037   1.0000000
N2   N   0.095301305493608   0.761907937121414   0.118160609376189   1.0000000
N2   N   0.238137569806675   0.904725027011196   0.116449513920153   1.0000000
N2   N   0.237957594445798   0.047493288194319   0.113478270133772   1.0000000
N2   N   0.237377911738527   0.190018492764860   0.112016456318010   1.0000000
N2   N   0.237402682570720   0.332951998418467   0.110399775280098   1.0000000
N2   N   0.237612463570896   0.475893775682646   0.115664307380267   1.0000000
N2   N   0.238104471432788   0.618949147015634   0.117809182824319   1.0000000
N2   N   0.238178648513228   0.761868556552510   0.118398783897253   1.0000000
N2   N   0.381039162101074   0.904759436507526   0.116904022234385   1.0000000
N2   N   0.380965445183621   0.047563288615432   0.113752414205288   1.0000000
N2   N   0.380675830123641   0.190201347335268   0.108172278206217   1.0000000
N2   N   0.379263164145849   0.331874160024693   0.096459472346151   1.0000000
N2   N   0.379451775983375   0.475954010958254   0.097340927884944   1.0000000
N2   N   0.380867454380694   0.618985437342243   0.110598694547426   1.0000000
N2   N   0.381064706811126   0.761897235692297   0.116034305045984   1.0000000
N2   N   0.523913085805942   0.904830020272716   0.116017376252382   1.0000000
N2   N   0.523861759422301   0.047633217329294   0.115945121578750   1.0000000
N2   N   0.523853737437874   0.190433448470907   0.112793820258310   1.0000000
N2   N   0.523669417458346   0.332892010088337   0.100287988221223   1.0000000
N2   N   0.523823342461004   0.619438348971064   0.099063585136761   1.0000000
N2   N   0.524001580263561   0.762066859315219   0.112222300620392   1.0000000
N2   N   0.666802083263168   0.905016322138740   0.114280093375520   1.0000000
N2   N   0.666697962070692   0.047694951702340   0.116915711799188   1.0000000
N2   N   0.666709543762955   0.190452913211787   0.116279710353278   1.0000000
N2   N   0.666701790125031   0.333231942257236   0.111638552387763   1.0000000
N2   N   0.668128695218781   0.475971541196545   0.095362652066529   1.0000000
N2   N   0.668324013810930   0.620962029118385   0.093404697316453   1.0000000
N2   N   0.666887653831463   0.762344338926151   0.108021958935019   1.0000000
N2   N   0.809589763624191   0.905070333490480   0.114387192083391   1.0000000
N2   N   0.809487091662316   0.047739047558245   0.116804217819995   1.0000000
N2   N   0.809462808557486   0.190456897207908   0.118107303021044   1.0000000
N2   N   0.809470620547189   0.333218877151739   0.118177671689460   1.0000000
N2   N   0.809700138580297   0.476063912346287   0.116637944026867   1.0000000
N2   N   0.809875038272989   0.619292198494384   0.110047478392419   1.0000000
N2   N   0.809901006915691   0.762545323642973   0.112609531629454   1.0000000


