data_1
_audit_creation_method   'vasp2cif'
_cell_length_a    17.52789999999977
_cell_length_b    17.52789999999977
_cell_length_c    15.0
_cell_angle_alpha    90.0
_cell_angle_beta    90.0
_cell_angle_gamma    119.99999999999916

_symmetry_space_group_name_H-M    'P 1'
loop_
_atom_site_label
_atom_site_type_symbol
_atom_site_fract_x
_atom_site_fract_y
_atom_site_fract_z
_atom_site_occupancy
B2   B   0.905234996235826   0.952510816855894   0.119810737502328   1.0000000
B2   B   0.905027079080202   0.095275278102470   0.119514387300678   1.0000000
B2   B   0.904996890596072   0.238131450034517   0.117193973285818   1.0000000
B2   B   0.905012012090471   0.380960788343138   0.113848819025461   1.0000000
B2   B   0.904500793422193   0.523638839003289   0.111855070977050   1.0000000
B2   B   0.904261213002554   0.666189230085592   0.113926474635369   1.0000000
B2   B   0.904468257207858   0.808992547169066   0.117526083234395   1.0000000
B2   B   0.047807577118603   0.952215710882429   0.119023570866149   1.0000000
B2   B   0.047745293091583   0.094991138792182   0.119295569289026   1.0000000
B2   B   0.047713282542879   0.237985832848451   0.117407749565907   1.0000000
B2   B   0.047748386265719   0.380961652994166   0.114135875283252   1.0000000
B2   B   0.047732843284067   0.523754536422171   0.112705468947840   1.0000000
B2   B   0.047647377488535   0.666462935332147   0.114109856103016   1.0000000
B2   B   0.047595419637827   0.809250155188742   0.117084032251859   1.0000000
B2   B   0.190727329095686   0.952337908782607   0.116875247236079   1.0000000
B2   B   0.191021675963724   0.095466513781343   0.116826411206469   1.0000000
B2   B   0.189976043378337   0.237311629713611   0.115885406847632   1.0000000
B2   B   0.190216174716237   0.380682802276975   0.110183618309461   1.0000000
B2   B   0.190729120312871   0.523626420354717   0.107872046043433   1.0000000
B2   B   0.190858786484067   0.666475669243725   0.110632440253344   1.0000000
B2   B   0.190656136021097   0.809347189392735   0.114779432438944   1.0000000
B2   B   0.333570545646716   0.952306418459877   0.114116828281230   1.0000000
B2   B   0.333778973436824   0.095501491924147   0.113979324445123   1.0000000
B2   B   0.334369385217685   0.239030067753372   0.111960066990639   1.0000000
B2   B   0.330782718898817   0.378986720744819   0.102406644898828   1.0000000
B2   B   0.333268660474380   0.522779154416159   0.093290172227413   1.0000000
B2   B   0.334003762488730   0.666213816922687   0.101677872035916   1.0000000
B2   B   0.333617197569062   0.809242043637691   0.110685019941393   1.0000000
B2   B   0.476375167697405   0.952392615461538   0.112907749536263   1.0000000
B2   B   0.476456343075616   0.095325476162871   0.112181665855789   1.0000000
B2   B   0.476685529154770   0.238331249409193   0.108875281054647   1.0000000
B2   B   0.478158126618468   0.381019995677079   0.110751213420962   1.0000000
B2   B   0.477598513581137   0.667584191740836   0.093294750012880   1.0000000
B2   B   0.476558730569076   0.809663869878360   0.108317911362683   1.0000000
B2   B   0.619276097373653   0.952593559301373   0.114524457862075   1.0000000
B2   B   0.619255060597195   0.095191200133716   0.114036555690624   1.0000000
B2   B   0.619498393483139   0.237835001090410   0.109941887336076   1.0000000
B2   B   0.619978036368407   0.380137354497583   0.104597177278554   1.0000000
B2   B   0.616791991556896   0.521404561712646   0.105784950648131   1.0000000
B2   B   0.621424752401468   0.669985501333665   0.102594277546737   1.0000000
B2   B   0.619603062894219   0.810296063086754   0.111005281747029   1.0000000
B2   B   0.762298187038842   0.952650836499160   0.118067287840914   1.0000000
B2   B   0.762145457258786   0.095309428559491   0.117302705352297   1.0000000
B2   B   0.762213099579443   0.238044302367758   0.114146623523082   1.0000000
B2   B   0.762282251131406   0.380696995285262   0.109520487675285   1.0000000
B2   B   0.760968303809863   0.523309836987070   0.107641833068284   1.0000000
B2   B   0.760590982797134   0.665570413190549   0.112502894166908   1.0000000
B2   B   0.762925529943852   0.810378762148454   0.116966102104567   1.0000000
N2   N   0.952446753955392   0.904435982626946   0.119403270130978   1.0000000
N2   N   0.952662289826705   0.047609909340596   0.120086791411416   1.0000000
N2   N   0.952548295244472   0.190472711295985   0.118703246940473   1.0000000
N2   N   0.952539883783312   0.333358999168093   0.115677710062071   1.0000000
N2   N   0.952323703916358   0.476172985050945   0.112985786913423   1.0000000
N2   N   0.952146031023994   0.618808927139142   0.113254926441577   1.0000000
N2   N   0.952159704536384   0.761443862051289   0.116567910137077   1.0000000
N2   N   0.095405714019280   0.904573558093617   0.118216665013778   1.0000000
N2   N   0.095631711093532   0.047594167567083   0.118890453796806   1.0000000
N2   N   0.095040915887306   0.190017141709022   0.118329744323685   1.0000000
N2   N   0.095141153041633   0.333186991583085   0.114448117172616   1.0000000
N2   N   0.095396717770873   0.476167814438541   0.112056115461395   1.0000000
N2   N   0.095432643164707   0.618966260837941   0.112726047178460   1.0000000
N2   N   0.095301659928617   0.761706169695152   0.115763441387917   1.0000000
N2   N   0.238308192864144   0.904676529872400   0.115619491380095   1.0000000
N2   N   0.238538736473385   0.047738541034397   0.116181016853698   1.0000000
N2   N   0.238841333050206   0.190887297145346   0.114958153002604   1.0000000
N2   N   0.236716467134192   0.331911517740647   0.111957296533640   1.0000000
N2   N   0.238114405849484   0.475882372795379   0.104849746693457   1.0000000
N2   N   0.238582677037720   0.618909401473513   0.106401227524286   1.0000000
N2   N   0.238321578189214   0.761749372999255   0.112034663686765   1.0000000
N2   N   0.381140697062826   0.904635639562683   0.112776343506728   1.0000000
N2   N   0.381259326986768   0.047748564285754   0.113472943347030   1.0000000
N2   N   0.381667177544776   0.191042293635621   0.111881064997726   1.0000000
N2   N   0.382503592286010   0.335196359380605   0.109005359817075   1.0000000
N2   N   0.375655694315334   0.470868610077096   0.084854663118493   1.0000000
N2   N   0.381719633578409   0.618670901373375   0.092212536724374   1.0000000
N2   N   0.381259777180914   0.761627934012293   0.106571948610220   1.0000000
N2   N   0.524052667401381   0.904916962489875   0.112442394223137   1.0000000
N2   N   0.524019721135433   0.047725575886426   0.113208733829563   1.0000000
N2   N   0.524238883710970   0.190768982823698   0.109801942892235   1.0000000
N2   N   0.525362916975776   0.334397847817860   0.106149101634861   1.0000000
N2   N   0.529756905819639   0.625761535562769   0.084174396918591   1.0000000
N2   N   0.524420585863328   0.762522091681296   0.105466055276389   1.0000000
N2   N   0.667113093575872   0.905306758562768   0.115165190254786   1.0000000
N2   N   0.666914935527460   0.047766018622346   0.115791944234139   1.0000000
N2   N   0.666980041525931   0.190373964719157   0.112915382061878   1.0000000
N2   N   0.667273028131716   0.332880759706157   0.107302718035823   1.0000000
N2   N   0.664757473355511   0.474789042126125   0.103220112776717   1.0000000
N2   N   0.664530722999616   0.617630427821462   0.109042513202173   1.0000000
N2   N   0.668417843245107   0.763877483811093   0.112976163450973   1.0000000
N2   N   0.810246201346395   0.905305172830447   0.119255515038985   1.0000000
N2   N   0.809833736922241   0.047799996366925   0.118967710681760   1.0000000
N2   N   0.809779210896328   0.190517264177678   0.116800470642699   1.0000000
N2   N   0.809829843516446   0.333268236310377   0.112665424371676   1.0000000
N2   N   0.808940517319662   0.475929666515359   0.109236320417185   1.0000000
N2   N   0.808646480400719   0.618339180403932   0.111502467126483   1.0000000
N2   N   0.809032346859188   0.761204594887701   0.116062614584519   1.0000000
Ge2   Ge   0.488746901455923   0.513209567601282   0.039642372063752   1.0000000


