data_1
_audit_creation_method   'vasp2cif'
_cell_length_a    17.52789999999977
_cell_length_b    17.52789999999977
_cell_length_c    15.0
_cell_angle_alpha    90.0
_cell_angle_beta    90.0
_cell_angle_gamma    119.99999999999916

_symmetry_space_group_name_H-M    'P 1'
loop_
_atom_site_label
_atom_site_type_symbol
_atom_site_fract_x
_atom_site_fract_y
_atom_site_fract_z
_atom_site_occupancy
B2   B   0.905156026378339   0.952941668111981   0.110668034115371   1.0000000
B2   B   0.904686998913528   0.095315022282466   0.110425652173667   1.0000000
B2   B   0.904686998913528   0.237943282957062   0.110425652173667   1.0000000
B2   B   0.905156026378339   0.380787376148368   0.110668034115371   1.0000000
B2   B   0.906536285086485   0.524045359173845   0.110590967431706   1.0000000
B2   B   0.906314964891183   0.667443991387089   0.111025946993935   1.0000000
B2   B   0.906536285086485   0.811063943795651   0.110590967431706   1.0000000
B2   B   0.047695259367472   0.952306761828528   0.110661450215312   1.0000000
B2   B   0.047060353084024   0.094845994817653   0.110668034115371   1.0000000
B2   B   0.046863057125110   0.237718037503555   0.110488525031534   1.0000000
B2   B   0.047060353084024   0.380787376148369   0.110668034115371   1.0000000
B2   B   0.047695259367472   0.523963226977937   0.110661450215312   1.0000000
B2   B   0.048168271755498   0.666969740064753   0.110664537217247   1.0000000
B2   B   0.048168271755498   0.809773261129742   0.110664537217247   1.0000000
B2   B   0.190228760066257   0.951833749440512   0.110664537217247   1.0000000
B2   B   0.188938077400354   0.093465736109513   0.110590967431706   1.0000000
B2   B   0.188784068280564   0.236875428338985   0.110715905710512   1.0000000
B2   B   0.188784068280564   0.380481657823580   0.110715905710512   1.0000000
B2   B   0.188938077400354   0.524045359173845   0.110590967431706   1.0000000
B2   B   0.190228760066257   0.666969740064753   0.110664537217247   1.0000000
B2   B   0.190476437651000   0.809525583545003   0.110380917794904   1.0000000
B2   B   0.333032281132244   0.951833749440512   0.110664537217247   1.0000000
B2   B   0.332558029809909   0.093687056304814   0.111025946993935   1.0000000
B2   B   0.329333436608540   0.233692128650507   0.111517197108150   1.0000000
B2   B   0.330331641881225   0.379452329881113   0.112344015504973   1.0000000
B2   B   0.329333436608540   0.524214325840038   0.111517197108150   1.0000000
B2   B   0.332558029809909   0.667443991387089   0.111025946993935   1.0000000
B2   B   0.333032281132244   0.809773261129742   0.110664537217247   1.0000000
B2   B   0.476038794219059   0.952306761828528   0.110661450215312   1.0000000
B2   B   0.475956662023165   0.093465736109513   0.110590967431706   1.0000000
B2   B   0.475787695356964   0.233692128650507   0.111517197108150   1.0000000
B2   B   0.467850398090939   0.364271792866884   0.113645323754048   1.0000000
B2   B   0.467850398090939   0.532151623106056   0.113645323754048   1.0000000
B2   B   0.475787695356964   0.670668584588461   0.111517197108150   1.0000000
B2   B   0.475956662023165   0.811063943795651   0.110590967431706   1.0000000
B2   B   0.619214645047636   0.952941668111981   0.110668034115371   1.0000000
B2   B   0.619214645047636   0.094845994817653   0.110668034115371   1.0000000
B2   B   0.619520363372417   0.236875428338985   0.110715905710512   1.0000000
B2   B   0.620549691314893   0.379452329881113   0.112344015504973   1.0000000
B2   B   0.635730228329122   0.532151623106056   0.113645323754048   1.0000000
B2   B   0.620549691314892   0.669670379315771   0.112344015504973   1.0000000
B2   B   0.619520363372417   0.811217952915431   0.110715905710512   1.0000000
B2   B   0.762283983692445   0.953138964070896   0.110488525031534   1.0000000
B2   B   0.762058738238940   0.095315022282467   0.110425652173667   1.0000000
B2   B   0.762283983692445   0.237718037503555   0.110488525031534   1.0000000
B2   B   0.763126592857017   0.380481657823580   0.110715905710512   1.0000000
B2   B   0.766309892545500   0.524214325840038   0.111517197108150   1.0000000
B2   B   0.766309892545499   0.670668584588460   0.111517197108150   1.0000000
B2   B   0.763126592857017   0.811217952915425   0.110715905710512   1.0000000
N2   N   0.953050159683004   0.905627283741082   0.110553142787682   1.0000000
N2   N   0.952222957355438   0.047778444562569   0.110814820153817   1.0000000
N2   N   0.952028921144693   0.190299257948846   0.110215250987091   1.0000000
N2   N   0.952222957355438   0.333014107545868   0.110814820153817   1.0000000
N2   N   0.953050159683004   0.475994182250915   0.110553142787682   1.0000000
N2   N   0.953362126431636   0.619315634490096   0.110849474024704   1.0000000
N2   N   0.953362126431636   0.762617798251530   0.110849474024704   1.0000000
N2   N   0.095284073222530   0.904717328695469   0.110652433637612   1.0000000
N2   N   0.094374118176916   0.046951242235005   0.110553142787682   1.0000000
N2   N   0.094081130031221   0.189833365162855   0.110560870050513   1.0000000
N2   N   0.094081130031221   0.332819071177368   0.110560870050513   1.0000000
N2   N   0.094374118176916   0.475994182250915   0.110553142787682   1.0000000
N2   N   0.095284073222530   0.619139762393059   0.110652433637612   1.0000000
N2   N   0.095537418925782   0.762055218395894   0.110421070054910   1.0000000
N2   N   0.237946183522110   0.904463982992215   0.110421070054910   1.0000000
N2   N   0.237383603666471   0.046639275486374   0.110849474024704   1.0000000
N2   N   0.235206663020304   0.187914567880400   0.110436004410153   1.0000000
N2   N   0.235823184927247   0.332197245618123   0.111200168525027   1.0000000
N2   N   0.235206663020304   0.475863401448904   0.110436004410153   1.0000000
N2   N   0.237383603666471   0.619315634490096   0.110849474024704   1.0000000
N2   N   0.237946183522110   0.762055218395894   0.110421070054910   1.0000000
N2   N   0.380861639524935   0.904717328695469   0.110652433637612   1.0000000
N2   N   0.380685767427905   0.046639275486374   0.110849474024704   1.0000000
N2   N   0.379870913472808   0.188311731337613   0.111403397875351   1.0000000
N2   N   0.374771476026658   0.327703328189652   0.112837341027124   1.0000000
N2   N   0.374771476026659   0.475639454146005   0.112837341027124   1.0000000
N2   N   0.379870913472808   0.620130488445196   0.111403397875351   1.0000000
N2   N   0.380685767427905   0.762617798251530   0.110849474024704   1.0000000
N2   N   0.524007219666079   0.905627283741082   0.110553142787682   1.0000000
N2   N   0.524007219666079   0.046951242235005   0.110553142787682   1.0000000
N2   N   0.524138000468107   0.187914567880400   0.110436004410153   1.0000000
N2   N   0.524361947770993   0.327703328189652   0.112837341027124   1.0000000
N2   N   0.524361947770995   0.625229925891345   0.112837341027124   1.0000000
N2   N   0.524138000468107   0.764794738897712   0.110436004410153   1.0000000
N2   N   0.667182330739633   0.905920271886774   0.110560870050513   1.0000000
N2   N   0.666987294371129   0.047778444562569   0.110814820153817   1.0000000
N2   N   0.667182330739633   0.189833365162855   0.110560870050513   1.0000000
N2   N   0.667804156298880   0.332197245618123   0.111200168525027   1.0000000
N2   N   0.672298073727348   0.475639454146005   0.112837341027124   1.0000000
N2   N   0.672298073727348   0.625229925891347   0.112837341027124   1.0000000
N2   N   0.667804156298880   0.764178216990756   0.111200168525027   1.0000000
N2   N   0.810168036755150   0.905920271886774   0.110560870050513   1.0000000
N2   N   0.809702143969155   0.047972480773312   0.110215250987091   1.0000000
N2   N   0.809702143969155   0.190299257948846   0.110215250987091   1.0000000
N2   N   0.810168036755150   0.332819071177368   0.110560870050513   1.0000000
N2   N   0.812086834037601   0.475863401448903   0.110436004410153   1.0000000
N2   N   0.811689670580383   0.620130488445196   0.111403397875351   1.0000000
N2   N   0.812086834037601   0.764794738897712   0.110436004410153   1.0000000
S2   S   0.523810499174999   0.476190902741997   0.113324074184283   1.0000000


