data_1
_audit_creation_method   'vasp2cif'
_cell_length_a    14.93631414619966
_cell_length_b    14.936314146199727
_cell_length_c    13.341276283792837
_cell_angle_alpha    90.0
_cell_angle_beta    90.0
_cell_angle_gamma    119.99999999999984

_symmetry_space_group_name_H-M    'P 1'
loop_
_atom_site_label
_atom_site_type_symbol
_atom_site_fract_x
_atom_site_fract_y
_atom_site_fract_z
_atom_site_occupancy
S2   S   0.519121739203221   0.426227536268273   0.375000000000000   1.0000000
N2   N   0.111072695979708   0.055535775789454   0.124919830974232   1.0000000
N2   N   0.611053250493019   0.555544597061637   0.124514514639536   1.0000000
N2   N   0.444457031998395   0.055548846455224   0.124898487410522   1.0000000
N2   N   0.944401489572903   0.555533876241713   0.124917693001863   1.0000000
N2   N   0.777769883682855   0.055551608508095   0.124859439199956   1.0000000
N2   N   0.111095802832436   0.722214568082878   0.625112266678603   1.0000000
N2   N   0.444457031998395   0.722241518876508   0.625101512589481   1.0000000
N2   N   0.277709910746309   0.222184882516038   0.625186402776475   1.0000000
N2   N   0.777723288254107   0.722198480983318   0.625067654395605   1.0000000
N2   N   0.611096027878625   0.222188878618775   0.625163781100321   1.0000000
N2   N   0.944411551372488   0.222206038765811   0.625116795182814   1.0000000
N2   N   0.277784617055397   0.722224746048592   0.124900114767632   1.0000000
N2   N   0.111056587524316   0.222194960428822   0.124908363108067   1.0000000
N2   N   0.444440453026118   0.222192367245095   0.124663935535711   1.0000000
N2   N   0.611096027878625   0.722240482593181   0.124836218899674   1.0000000
N2   N   0.944401489572903   0.722200946664526   0.124917693001863   1.0000000
N2   N   0.777759487371023   0.222203901479855   0.124882607125896   1.0000000
N2   N   0.111092448182971   0.888882287503427   0.625106300055165   1.0000000
N2   N   0.444463268988258   0.888898301160797   0.625114119649580   1.0000000
N2   N   0.277709910746308   0.388858361563597   0.625186402776475   1.0000000
N2   N   0.611053250493020   0.388841986764715   0.625485485360463   1.0000000
N2   N   0.777759487371023   0.888888919224501   0.625117392874104   1.0000000
N2   N   0.944408778945147   0.388871690383997   0.625097332652009   1.0000000
N2   N   0.111072695979709   0.388870253523583   0.124919830974232   1.0000000
N2   N   0.277784617055397   0.888893204340137   0.124900114767632   1.0000000
N2   N   0.611120966740826   0.888906457198909   0.124863547001235   1.0000000
N2   N   0.444318659081172   0.388825996207250   0.123383453443122   1.0000000
N2   N   0.944408778945147   0.888870421894477   0.124902667347991   1.0000000
N2   N   0.777723288254107   0.388858140604116   0.124932345604393   1.0000000
N2   N   0.277769218282821   0.555553033648958   0.625077873336607   1.0000000
N2   N   0.111072695979708   0.055535775789454   0.625080169025772   1.0000000
N2   N   0.611053250493019   0.555544597061637   0.625485485360463   1.0000000
N2   N   0.444457031998395   0.055548846455223   0.625101512589481   1.0000000
N2   N   0.944401489572903   0.555533876241713   0.625082306998132   1.0000000
N2   N   0.111092448182971   0.555543494012874   0.124893699944834   1.0000000
N2   N   0.777769883682855   0.055551608508095   0.625140560800047   1.0000000
N2   N   0.277769218282821   0.055549517967196   0.124922126663396   1.0000000
N2   N   0.444440453026119   0.555581419114361   0.124663935535711   1.0000000
N2   N   0.777706248594494   0.555519790963913   0.124955176249055   1.0000000
N2   N   0.611120966740826   0.055547842875243   0.124863547001235   1.0000000
N2   N   0.444440453026118   0.555581419114361   0.625336064464286   1.0000000
N2   N   0.944411551372488   0.055538845940015   0.124883204817182   1.0000000
N2   N   0.277784617055397   0.722224746048592   0.625099885232363   1.0000000
N2   N   0.111056587524316   0.222194960428822   0.625091636891929   1.0000000
N2   N   0.444440453026118   0.222192367245095   0.625336064464286   1.0000000
N2   N   0.611096027878625   0.722240482593181   0.625163781100321   1.0000000
N2   N   0.944401489572903   0.722200946664526   0.625082306998132   1.0000000
N2   N   0.777759487371023   0.222203901479855   0.625117392874104   1.0000000
N2   N   0.111095802832436   0.722214568082878   0.124887733321391   1.0000000
N2   N   0.444457031998395   0.722241518876508   0.124898487410522   1.0000000
N2   N   0.277709910746307   0.222184882516038   0.124813597223523   1.0000000
N2   N   0.777723288254107   0.722198480983318   0.124932345604393   1.0000000
N2   N   0.611096027878625   0.222188878618775   0.124836218899674   1.0000000
N2   N   0.944411551372488   0.222206038765811   0.124883204817182   1.0000000
N2   N   0.111072695979708   0.388870253523583   0.625080169025772   1.0000000
N2   N   0.277784617055397   0.888893204340137   0.625099885232363   1.0000000
N2   N   0.611120966740826   0.888906457198909   0.625136452998766   1.0000000
N2   N   0.444318659081172   0.388825996207250   0.626616546556882   1.0000000
N2   N   0.944408778945147   0.888870421894477   0.625097332652009   1.0000000
N2   N   0.111092448182971   0.888882287503427   0.124893699944834   1.0000000
N2   N   0.777723288254107   0.388858140604116   0.625067654395605   1.0000000
N2   N   0.444463268988258   0.888898301160797   0.124885880350418   1.0000000
N2   N   0.277709910746308   0.388858361563597   0.124813597223523   1.0000000
N2   N   0.277769218282821   0.555553033648958   0.124922126663396   1.0000000
N2   N   0.611053250493020   0.388841986764715   0.124514514639536   1.0000000
N2   N   0.777759487371023   0.888888919224501   0.124882607125896   1.0000000
N2   N   0.944408778945147   0.388871690383997   0.124902667347991   1.0000000
N2   N   0.111092448182971   0.555543494012874   0.625106300055165   1.0000000
N2   N   0.277769218282821   0.055549517967196   0.625077873336607   1.0000000
N2   N   0.777706248594494   0.555519790963913   0.625044823750943   1.0000000
N2   N   0.611120966740826   0.055547842875243   0.625136452998766   1.0000000
N2   N   0.944411551372488   0.055538845940015   0.625116795182814   1.0000000
N2   N   0.056672751147219   0.111801702664513   0.375000000000000   1.0000000
N2   N   0.554708997856618   0.617891973202123   0.375000000000000   1.0000000
N2   N   0.386708800829560   0.104849439908232   0.375000000000000   1.0000000
N2   N   0.884755376938021   0.609044355135684   0.375000000000000   1.0000000
N2   N   0.722489114846867   0.110515107495687   0.375000000000000   1.0000000
N2   N   0.055572413362314   0.777784021387076   0.875000000000000   1.0000000
N2   N   0.388902314531467   0.777785863713355   0.875000000000000   1.0000000
N2   N   0.222243389917020   0.277788361625181   0.875000000000000   1.0000000
N2   N   0.722243573084672   0.777784406043092   0.875000000000000   1.0000000
N2   N   0.555576387037004   0.277790323228042   0.875000000000000   1.0000000
N2   N   0.888911131615725   0.277793174239347   0.875000000000000   1.0000000
N2   N   0.219168891968360   0.776251112650848   0.375000000000000   1.0000000
N2   N   0.056672751147219   0.278204381816042   0.375000000000000   1.0000000
N2   N   0.389271844689108   0.269319706979313   0.375000000000000   1.0000000
N2   N   0.554666926070330   0.780599908191256   0.375000000000000   1.0000000
N2   N   0.886937084956368   0.777147089645244   0.375000000000000   1.0000000
N2   N   0.722074265680413   0.275825644871973   0.375000000000000   1.0000000
N2   N   0.055572662859292   0.944447506464509   0.875000000000000   1.0000000
N2   N   0.388902314531467   0.944449784151438   0.875000000000000   1.0000000
N2   N   0.222238726927447   0.444458937641138   0.875000000000000   1.0000000
N2   N   0.555582750378242   0.444458041855786   0.875000000000000   1.0000000
N2   N   0.722240284404622   0.944451845238668   0.875000000000000   1.0000000
N2   N   0.888914043474668   0.444460491694467   0.875000000000000   1.0000000
N2   N   0.054308616573552   0.444107364506530   0.375000000000000   1.0000000
N2   N   0.219501307513978   0.941763507585372   0.375000000000000   1.0000000
N2   N   0.554659226558056   0.943996279945695   0.375000000000000   1.0000000
N2   N   0.389271844689108   0.453285471043132   0.375000000000000   1.0000000
N2   N   0.889237873580966   0.945197011424219   0.375000000000000   1.0000000
N2   N   0.718897158765747   0.441495689643353   0.375000000000000   1.0000000
N2   N   0.222232595391941   0.611121273951305   0.875000000000000   1.0000000
N2   N   0.055575806895199   0.111117648601062   0.875000000000000   1.0000000
N2   N   0.555576387037004   0.611119397142296   0.875000000000000   1.0000000
N2   N   0.388904517716916   0.111115175072008   0.875000000000000   1.0000000
N2   N   0.888916028419444   0.611124680876397   0.875000000000000   1.0000000
N2   N   0.052343415383667   0.609814523352146   0.375000000000000   1.0000000
N2   N   0.722240284404622   0.111121772499296   0.875000000000000   1.0000000
N2   N   0.221650824920079   0.109521554473942   0.375000000000000   1.0000000
N2   N   0.386708800829560   0.615192694254672   0.375000000000000   1.0000000
N2   N   0.718897158765747   0.610734802455732   0.375000000000000   1.0000000
N2   N   0.554666926070330   0.107400351212411   0.375000000000000   1.0000000
N2   N   0.388904517716916   0.611122675978250   0.875000000000000   1.0000000
N2   N   0.889780129884553   0.111556731608946   0.375000000000000   1.0000000
N2   N   0.222232263828934   0.777782798581133   0.875000000000000   1.0000000
N2   N   0.055575806895199   0.277791491627471   0.875000000000000   1.0000000
N2   N   0.388909098070732   0.277782871503243   0.875000000000000   1.0000000
N2   N   0.555572519395546   0.777785343699314   0.875000000000000   1.0000000
N2   N   0.888914043474668   0.777786885113536   0.875000000000000   1.0000000
N2   N   0.722243573084672   0.277792500374913   0.875000000000000   1.0000000
N2   N   0.052343415383667   0.775862225364859   0.375000000000000   1.0000000
N2   N   0.386636963768288   0.778252806598352   0.375000000000000   1.0000000
N2   N   0.224893749654960   0.279113541494150   0.375000000000000   1.0000000
N2   N   0.722074265680415   0.779581954141770   0.375000000000000   1.0000000
N2   N   0.554708997856617   0.270150357987829   0.375000000000000   1.0000000
N2   N   0.889237873580966   0.277374195490089   0.375000000000000   1.0000000
N2   N   0.055572662859292   0.444458489728107   0.875000000000000   1.0000000
N2   N   0.222232595391941   0.944444654773972   0.875000000000000   1.0000000
N2   N   0.555570305239786   0.944451819286557   0.875000000000000   1.0000000
N2   N   0.388909098070732   0.444459559900826   0.875000000000000   1.0000000
N2   N   0.888911131615725   0.944451290709716   0.875000000000000   1.0000000
N2   N   0.054308616573552   0.943534585400354   0.375000000000000   1.0000000
N2   N   0.722248472949635   0.444459877346337   0.875000000000000   1.0000000
N2   N   0.386636963768288   0.941717490503269   0.375000000000000   1.0000000
N2   N   0.221650824920079   0.445462603779473   0.375000000000000   1.0000000
N2   N   0.219501307513979   0.611071133261943   0.375000000000000   1.0000000
N2   N   0.722489114846867   0.945307340684512   0.375000000000000   1.0000000
N2   N   0.886937084956368   0.443123328644456   0.375000000000000   1.0000000
N2   N   0.055572413362314   0.611121725308573   0.875000000000000   1.0000000
N2   N   0.222238726927447   0.111113122619645   0.875000000000000   1.0000000
N2   N   0.722248472949635   0.611121928936632   0.875000000000000   1.0000000
N2   N   0.555572519395546   0.111120509029570   0.875000000000000   1.0000000
N2   N   0.888910065562231   0.111121699447788   0.875000000000000   1.0000000
B2   B   0.111477901808439   0.055335648458067   0.375000000000000   1.0000000
B2   B   0.607607330491562   0.561768105171096   0.375000000000000   1.0000000
B2   B   0.443021233377614   0.051979421615495   0.375000000000000   1.0000000
B2   B   0.941223314064025   0.554117168998521   0.375000000000000   1.0000000
B2   B   0.778696968667401   0.056015151000372   0.375000000000000   1.0000000
B2   B   0.111133195697982   0.722233264515658   0.875000000000000   1.0000000
B2   B   0.444442013067717   0.722183079722354   0.875000000000000   1.0000000
B2   B   0.277843546714571   0.222275343378747   0.875000000000000   1.0000000
B2   B   0.777773287137345   0.722198517052901   0.875000000000000   1.0000000
B2   B   0.611093611995413   0.222256866496091   0.875000000000000   1.0000000
B2   B   0.944505534818820   0.222253733940114   0.875000000000000   1.0000000
B2   B   0.275388139299515   0.721696250157947   0.375000000000000   1.0000000
B2   B   0.114390874160593   0.223862103746961   0.375000000000000   1.0000000
B2   B   0.441798963557715   0.215780469246923   0.375000000000000   1.0000000
B2   B   0.610808769137907   0.726501200095856   0.375000000000000   1.0000000
B2   B   0.941223314064025   0.720439478398838   0.375000000000000   1.0000000
B2   B   0.778278623883004   0.221429138559151   0.375000000000000   1.0000000
B2   B   0.111145710280490   0.888921129390850   0.875000000000000   1.0000000
B2   B   0.444443713385855   0.888888523359594   0.875000000000000   1.0000000
B2   B   0.277843546714571   0.388901536669154   0.875000000000000   1.0000000
B2   B   0.611076179882354   0.388901833162435   0.875000000000000   1.0000000
B2   B   0.777794523872151   0.888879573680895   0.875000000000000   1.0000000
B2   B   0.944480325771325   0.388908794763014   0.875000000000000   1.0000000
B2   B   0.111477901808439   0.389475586683701   0.375000000000000   1.0000000
B2   B   0.275388139299516   0.887025222474895   0.375000000000000   1.0000000
B2   B   0.611086222886046   0.890256960264546   0.375000000000000   1.0000000
B2   B   0.943555457995394   0.888555613688185   0.375000000000000   1.0000000
B2   B   0.775825896366223   0.386913474025413   0.375000000000000   1.0000000
B2   B   0.277810624321273   0.555536059382024   0.875000000000000   1.0000000
B2   B   0.111179262675572   0.055604862133003   0.875000000000000   1.0000000
B2   B   0.611076179882354   0.555507680053248   0.875000000000000   1.0000000
B2   B   0.444442013067717   0.055592266678700   0.875000000000000   1.0000000
B2   B   0.944457388473038   0.555563418018370   0.875000000000000   1.0000000
B2   B   0.108775743626347   0.554981945880964   0.375000000000000   1.0000000
B2   B   0.777804491109382   0.055568912221357   0.875000000000000   1.0000000
B2   B   0.276065275437937   0.053090848899144   0.375000000000000   1.0000000
B2   B   0.441798963557713   0.559351827644128   0.375000000000000   1.0000000
B2   B   0.772914691755796   0.553124012544566   0.375000000000000   1.0000000
B2   B   0.611086222886046   0.054162595954825   0.375000000000000   1.0000000
B2   B   0.444438065799364   0.555501662316001   0.875000000000000   1.0000000
B2   B   0.945889043317351   0.056546442721345   0.375000000000000   1.0000000
B2   B   0.277794977618482   0.722214468894654   0.875000000000000   1.0000000
B2   B   0.111200555107336   0.222266944220333   0.875000000000000   1.0000000
B2   B   0.444438065799364   0.222269736816703   0.875000000000000   1.0000000
B2   B   0.611093611995413   0.722170078832654   0.875000000000000   1.0000000
B2   B   0.944457388473038   0.722227303788008   0.875000000000000   1.0000000
B2   B   0.777794523872151   0.222248283524585   0.875000000000000   1.0000000
B2   B   0.108127477101823   0.720730405217572   0.375000000000000   1.0000000
B2   B   0.443021233377614   0.724375145095450   0.375000000000000   1.0000000
B2   B   0.281795961556076   0.223209713790614   0.375000000000000   1.0000000
B2   B   0.775825896366222   0.722245755674137   0.375000000000000   1.0000000
B2   B   0.610808769137905   0.217640902375373   0.375000000000000   1.0000000
B2   B   0.945889043317351   0.222675933929341   0.375000000000000   1.0000000
B2   B   0.111179262675572   0.388907733875896   0.875000000000000   1.0000000
B2   B   0.277794977618482   0.888913842057155   0.875000000000000   1.0000000
B2   B   0.611109324299600   0.888871056713648   0.875000000000000   1.0000000
B2   B   0.444444183224142   0.388888758278737   0.875000000000000   1.0000000
B2   B   0.944480325771325   0.888904864341640   0.875000000000000   1.0000000
B2   B   0.108775743626347   0.887127131078710   0.375000000000000   1.0000000
B2   B   0.777773287137345   0.388908103417761   0.875000000000000   1.0000000
B2   B   0.443114905840051   0.888224119586692   0.375000000000000   1.0000000
B2   B   0.281795961556075   0.391919581098791   0.375000000000000   1.0000000
B2   B   0.276065275437937   0.556307759872123   0.375000000000000   1.0000000
B2   B   0.607607330491562   0.379172558653796   0.375000000000000   1.0000000
B2   B   0.778278623883004   0.890182818657184   0.375000000000000   1.0000000
B2   B   0.943555457995394   0.388333177640533   0.375000000000000   1.0000000
B2   B   0.111145710280490   0.555557914222963   0.875000000000000   1.0000000
B2   B   0.277810624321273   0.055607898272589   0.875000000000000   1.0000000
B2   B   0.777761038082079   0.555547185707711   0.875000000000000   1.0000000
B2   B   0.611109324299600   0.055571600919286   0.875000000000000   1.0000000
B2   B   0.944505534818820   0.055585134212039   0.875000000000000   1.0000000
B2   B   0.055634711246951   0.111192474750333   0.125189375834494   1.0000000
B2   B   0.555377381127765   0.610940218781586   0.125101039571999   1.0000000
B2   B   0.388927317884447   0.111286638427276   0.125298407294912   1.0000000
B2   B   0.888751808252024   0.611042570792684   0.125085393306579   1.0000000
B2   B   0.722202882828293   0.111103098046260   0.125031627999003   1.0000000
B2   B   0.055546754282811   0.777806442401178   0.624952134117370   1.0000000
B2   B   0.388929307117947   0.777745832608589   0.624897675381385   1.0000000
B2   B   0.222360106522413   0.277846719927874   0.624520210529792   1.0000000
B2   B   0.722112368579658   0.777712921561191   0.624929743681117   1.0000000
B2   B   0.555377381127765   0.277770495679523   0.624898960428007   1.0000000
B2   B   0.888881340832953   0.277750918744864   0.624938514923562   1.0000000
B2   B   0.222267189930865   0.777800261632100   0.125061451406149   1.0000000
B2   B   0.055634711246952   0.277775569829955   0.125189375834494   1.0000000
B2   B   0.388899938475647   0.277932484810734   0.125637288086904   1.0000000
B2   B   0.555520253697532   0.777712704424977   0.125100505152609   1.0000000
B2   B   0.888800624860135   0.777751591545334   0.125073705467932   1.0000000
B2   B   0.722112368579658   0.277732780351797   0.125070256318879   1.0000000
B2   B   0.055592056855081   0.944536476548936   0.624884928910295   1.0000000
B2   B   0.388929307117947   0.944516807842692   0.624897675381385   1.0000000
B2   B   0.222332315126754   0.444358196902185   0.624612282431090   1.0000000
B2   B   0.555161856605116   0.444247594969222   0.624748253668277   1.0000000
B2   B   0.722202882828293   0.944433118115371   0.624968372000997   1.0000000
B2   B   0.888800624860135   0.444382366648146   0.624926294532071   1.0000000
B2   B   0.055592056855081   0.444388913639478   0.125115071089704   1.0000000
B2   B   0.222289530448732   0.944583590800928   0.125143396060366   1.0000000
B2   B   0.555559554686487   0.944446444009915   0.125047725981141   1.0000000
B2   B   0.388899938475648   0.444300786998250   0.125637288086904   1.0000000
B2   B   0.888881340832953   0.944463755421421   0.125061485076434   1.0000000
B2   B   0.721953115695930   0.444323994625626   0.125047354302985   1.0000000
B2   B   0.222289530448732   0.611039272981140   0.624856603939628   1.0000000
B2   B   0.055634711246952   0.111192474750333   0.624810624165506   1.0000000
B2   B   0.555377381127765   0.610940218781586   0.624898960428007   1.0000000
B2   B   0.388927317884446   0.111286638427276   0.624701592705088   1.0000000
B2   B   0.888751808252024   0.611042570792684   0.624914606693421   1.0000000
B2   B   0.055546754282811   0.611073645214967   0.125047865882631   1.0000000
B2   B   0.722202882828293   0.111103098046260   0.624968372000997   1.0000000
B2   B   0.222332315126754   0.111307451557906   0.125387717568918   1.0000000
B2   B   0.388927317884446   0.610974012790515   0.125298407294912   1.0000000
B2   B   0.721953115695930   0.610962454403639   0.125047354302985   1.0000000
B2   B   0.555520253697532   0.111140882605893   0.125100505152609   1.0000000
B2   B   0.388927317884446   0.610974012790515   0.624701592705088   1.0000000
B2   B   0.888913271925569   0.111123302629455   0.125057609126943   1.0000000
B2   B   0.222267189930865   0.777800261632100   0.624938548593856   1.0000000
B2   B   0.055634711246952   0.277775569829955   0.624810624165506   1.0000000
B2   B   0.388899938475647   0.277932484810734   0.624362711913096   1.0000000
B2   B   0.555520253697532   0.777712704424977   0.624899494847387   1.0000000
B2   B   0.888800624860135   0.777751591545334   0.624926294532071   1.0000000
B2   B   0.722112368579658   0.277732780351797   0.624929743681117   1.0000000
B2   B   0.055546754282811   0.777806442401178   0.125047865882631   1.0000000
B2   B   0.388929307117947   0.777745832608589   0.125102324618617   1.0000000
B2   B   0.222360106522413   0.277846719927874   0.125479789470207   1.0000000
B2   B   0.722112368579658   0.777712921561191   0.125070256318879   1.0000000
B2   B   0.555377381127765   0.277770495679523   0.125101039571999   1.0000000
B2   B   0.888881340832953   0.277750918744864   0.125061485076434   1.0000000
B2   B   0.055592056855082   0.444388913639478   0.624884928910295   1.0000000
B2   B   0.222289530448732   0.944583590800930   0.624856603939628   1.0000000
B2   B   0.555559554686487   0.944446444009915   0.624952274018860   1.0000000
B2   B   0.388899938475647   0.444300786998250   0.624362711913096   1.0000000
B2   B   0.888881340832953   0.944463755421421   0.624938514923562   1.0000000
B2   B   0.055592056855082   0.944536476548936   0.125115071089704   1.0000000
B2   B   0.721953115695930   0.444323994625626   0.624952645697014   1.0000000
B2   B   0.388929307117947   0.944516807842692   0.125102324618617   1.0000000
B2   B   0.222332315126754   0.444358196902185   0.125387717568918   1.0000000
B2   B   0.222289530448732   0.611039272981140   0.125143396060366   1.0000000
B2   B   0.555161856605116   0.444247594969222   0.125251746331726   1.0000000
B2   B   0.722202882828293   0.944433118115371   0.125031627999003   1.0000000
B2   B   0.888800624860135   0.444382366648146   0.125073705467932   1.0000000
B2   B   0.055546754282811   0.611073645214967   0.624952134117370   1.0000000
B2   B   0.222332315126754   0.111307451557906   0.624612282431090   1.0000000
B2   B   0.721953115695930   0.610962454403639   0.624952645697014   1.0000000
B2   B   0.555520253697532   0.111140882605893   0.624899494847387   1.0000000
B2   B   0.888913271925570   0.111123302629455   0.624942390873056   1.0000000


