data_1
_audit_creation_method   'vasp2cif'
_cell_length_a    14.93631414619966
_cell_length_b    14.936314146199727
_cell_length_c    13.341276283792837
_cell_angle_alpha    90.0
_cell_angle_beta    90.0
_cell_angle_gamma    119.99999999999984

_symmetry_space_group_name_H-M    'P 1'
loop_
_atom_site_label
_atom_site_type_symbol
_atom_site_fract_x
_atom_site_fract_y
_atom_site_fract_z
_atom_site_occupancy
N2   N   0.110995276964516   0.055514660161871   0.124992432147078   1.0000000
N2   N   0.611052764602285   0.555497664494466   0.125131784600576   1.0000000
N2   N   0.444342062484763   0.055527244102235   0.125066087208096   1.0000000
N2   N   0.944383010664181   0.555518047192363   0.124992573159196   1.0000000
N2   N   0.777626621614728   0.055479977474035   0.124997576429630   1.0000000
N2   N   0.111035114183145   0.722184223758236   0.625024775832679   1.0000000
N2   N   0.444342062484763   0.722148151715864   0.624933912791903   1.0000000
N2   N   0.277660947132332   0.222179038170885   0.624642482357193   1.0000000
N2   N   0.777700355779351   0.722173537745389   0.625005070451924   1.0000000
N2   N   0.611003965294513   0.222197436801297   0.624849108269939   1.0000000
N2   N   0.944301714357812   0.222151371291140   0.625055918190440   1.0000000
N2   N   0.277688899048782   0.722168034578804   0.124968052587749   1.0000000
N2   N   0.110956872700430   0.222145103016883   0.125000530941808   1.0000000
N2   N   0.444376777524737   0.222215570915457   0.125464062689943   1.0000000
N2   N   0.611003965294513   0.722139861826547   0.125150891730061   1.0000000
N2   N   0.944383010664181   0.722198296805147   0.124992573159196   1.0000000
N2   N   0.777652745882891   0.222171278508079   0.125008897504659   1.0000000
N2   N   0.111029203865785   0.888865149492262   0.625022870130764   1.0000000
N2   N   0.444330841550883   0.888832087442111   0.625033032362978   1.0000000
N2   N   0.277660947132332   0.388815242294776   0.624642482357193   1.0000000
N2   N   0.611052764602285   0.388888433441146   0.624868215399425   1.0000000
N2   N   0.777652745882891   0.888814800708147   0.624991102495341   1.0000000
N2   N   0.944341520793752   0.388829904078013   0.625041849631257   1.0000000
N2   N   0.110995276964516   0.388813950135974   0.124992432147078   1.0000000
N2   N   0.277688899048782   0.888854197803299   0.124968052587749   1.0000000
N2   N   0.610981219886451   0.888812390485552   0.125015587788103   1.0000000
N2   N   0.444381112682181   0.388857223007755   0.125600323485927   1.0000000
N2   N   0.944341520793752   0.888844950049069   0.124958150368744   1.0000000
N2   N   0.777700355779351   0.388860151367290   0.124994929548077   1.0000000
N2   N   0.277682367735781   0.555487820238097   0.624895461609550   1.0000000
N2   N   0.110995276964516   0.055514660161871   0.625007567852921   1.0000000
N2   N   0.611052764602285   0.555497664494466   0.624868215399425   1.0000000
N2   N   0.444342062484763   0.055527244102235   0.624933912791903   1.0000000
N2   N   0.944383010664181   0.555518047192363   0.625007426840806   1.0000000
N2   N   0.111029203865785   0.555497387706849   0.124977129869237   1.0000000
N2   N   0.777626621614728   0.055479977474035   0.625002423570370   1.0000000
N2   N   0.277682367735781   0.055527880831028   0.125104538390450   1.0000000
N2   N   0.444376777524737   0.555494539942617   0.125464062689943   1.0000000
N2   N   0.777729150565693   0.555531241949512   0.125064383474977   1.0000000
N2   N   0.610981219886451   0.055502162734226   0.125015587788103   1.0000000
N2   N   0.444376777524737   0.555494539942617   0.624535937310064   1.0000000
N2   N   0.944301714357812   0.055483676400008   0.124944081809560   1.0000000
N2   N   0.277688899048782   0.722168034578804   0.625031947412251   1.0000000
N2   N   0.110956872700430   0.222145103016883   0.624999469058192   1.0000000
N2   N   0.444376777524737   0.222215570915457   0.624535937310064   1.0000000
N2   N   0.611003965294513   0.722139861826547   0.624849108269939   1.0000000
N2   N   0.944383010664181   0.722198296805147   0.625007426840806   1.0000000
N2   N   0.777652745882891   0.222171278508079   0.624991102495341   1.0000000
N2   N   0.111035114183145   0.722184223758236   0.124975224167320   1.0000000
N2   N   0.444342062484763   0.722148151715864   0.125066087208096   1.0000000
N2   N   0.277660947132332   0.222179038170885   0.125357517642807   1.0000000
N2   N   0.777700355779351   0.722173537745389   0.124994929548077   1.0000000
N2   N   0.611003965294513   0.222197436801297   0.125150891730061   1.0000000
N2   N   0.944301714357812   0.222151371291140   0.124944081809561   1.0000000
N2   N   0.110995276964516   0.388813950135974   0.625007567852921   1.0000000
N2   N   0.277688899048782   0.888854197803299   0.625031947412251   1.0000000
N2   N   0.610981219886451   0.888812390485552   0.624984412211898   1.0000000
N2   N   0.444381112682181   0.388857223007755   0.624399676514071   1.0000000
N2   N   0.944341520793752   0.888844950049069   0.625041849631257   1.0000000
N2   N   0.111029203865785   0.888865149492262   0.124977129869237   1.0000000
N2   N   0.777700355779351   0.388860151367290   0.625005070451924   1.0000000
N2   N   0.444330841550883   0.888832087442111   0.124966967637022   1.0000000
N2   N   0.277660947132332   0.388815242294776   0.125357517642807   1.0000000
N2   N   0.277682367735781   0.555487820238097   0.125104538390450   1.0000000
N2   N   0.611052764602285   0.388888433441146   0.125131784600576   1.0000000
N2   N   0.777652745882891   0.888814800708147   0.125008897504659   1.0000000
N2   N   0.944341520793752   0.388829904078013   0.124958150368744   1.0000000
N2   N   0.111029203865785   0.555497387706849   0.625022870130764   1.0000000
N2   N   0.277682367735781   0.055527880831028   0.624895461609550   1.0000000
N2   N   0.777729150565693   0.555531241949512   0.624935616525020   1.0000000
N2   N   0.610981219886451   0.055502162734226   0.624984412211898   1.0000000
N2   N   0.944301714357812   0.055483676400008   0.625055918190440   1.0000000
N2   N   0.052619981341621   0.109241810534897   0.375000000000000   1.0000000
N2   N   0.557964348235716   0.600495929014725   0.375000000000000   1.0000000
N2   N   0.390608128614261   0.115845914215788   0.375000000000000   1.0000000
N2   N   0.893477537984989   0.613405435659165   0.375000000000000   1.0000000
N2   N   0.721216510090907   0.111639337065101   0.375000000000000   1.0000000
N2   N   0.055539321984955   0.777770487797351   0.875000000000000   1.0000000
N2   N   0.388874603108147   0.777769677149188   0.875000000000000   1.0000000
N2   N   0.222203373426696   0.277768353380019   0.875000000000000   1.0000000
N2   N   0.722201633540375   0.777766474316278   0.875000000000000   1.0000000
N2   N   0.555537975977875   0.277771239852391   0.875000000000000   1.0000000
N2   N   0.888876600255712   0.277771644745877   0.875000000000000   1.0000000
N2   N   0.224874892113060   0.779104112723194   0.375000000000000   1.0000000
N2   N   0.052619981341621   0.276711504140060   0.375000000000000   1.0000000
N2   N   0.380553368787067   0.270734034205618   0.375000000000000   1.0000000
N2   N   0.556361617375583   0.773599994795172   0.375000000000000   1.0000000
N2   N   0.890118593071159   0.777636408588618   0.375000000000000   1.0000000
N2   N   0.721958980943379   0.280329294095089   0.375000000000000   1.0000000
N2   N   0.055536749720370   0.944436461443564   0.875000000000000   1.0000000
N2   N   0.388874603108147   0.944438259292291   0.875000000000000   1.0000000
N2   N   0.222207254396975   0.444435975500106   0.875000000000000   1.0000000
N2   N   0.555533767903103   0.444433550618219   0.875000000000000   1.0000000
N2   N   0.722206092982008   0.944435834222225   0.875000000000000   1.0000000
N2   N   0.888875723719556   0.444437184341636   0.875000000000000   1.0000000
N2   N   0.055492925779945   0.444664256523582   0.375000000000000   1.0000000
N2   N   0.224277464838252   0.946485190449196   0.375000000000000   1.0000000
N2   N   0.556115737162229   0.944724535247779   0.375000000000000   1.0000000
N2   N   0.380553368787067   0.443152667914779   0.375000000000000   1.0000000
N2   N   0.887425031109931   0.942774272812364   0.375000000000000   1.0000000
N2   N   0.725195263892699   0.448254457726557   0.375000000000000   1.0000000
N2   N   0.222205520465391   0.611102053736985   0.875000000000000   1.0000000
N2   N   0.055541949079234   0.111103755824434   0.875000000000000   1.0000000
N2   N   0.555537975977875   0.611100069458816   0.875000000000000   1.0000000
N2   N   0.388869822996263   0.111105741082939   0.875000000000000   1.0000000
N2   N   0.888869856674003   0.611101595003675   0.875000000000000   1.0000000
N2   N   0.058455582941468   0.612337415838606   0.375000000000000   1.0000000
N2   N   0.722206092982008   0.111103592093119   0.875000000000000   1.0000000
N2   N   0.220387191872328   0.110411581713587   0.375000000000000   1.0000000
N2   N   0.390608128614261   0.608095547731816   0.375000000000000   1.0000000
N2   N   0.725195263892699   0.610274139499478   0.375000000000000   1.0000000
N2   N   0.556361617375583   0.116094955913745   0.375000000000000   1.0000000
N2   N   0.388869822996263   0.611097415246666   0.875000000000000   1.0000000
N2   N   0.886713404106123   0.110023368719732   0.375000000000000   1.0000000
N2   N   0.222202507015503   0.777767920174416   0.875000000000000   1.0000000
N2   N   0.055541949079234   0.277771526588135   0.875000000000000   1.0000000
N2   N   0.388873466116352   0.277771486211141   0.875000000000000   1.0000000
N2   N   0.555538106649728   0.777768941789974   0.875000000000000   1.0000000
N2   N   0.888875723719556   0.777771872711258   0.875000000000000   1.0000000
N2   N   0.722201633540375   0.277768492557432   0.875000000000000   1.0000000
N2   N   0.058455582941468   0.779451500436197   0.375000000000000   1.0000000
N2   N   0.390817618545929   0.777354475347354   0.375000000000000   1.0000000
N2   N   0.216497937691474   0.274915635512401   0.375000000000000   1.0000000
N2   N   0.721958980943379   0.774963020181625   0.375000000000000   1.0000000
N2   N   0.557964348235716   0.290801752554325   0.375000000000000   1.0000000
N2   N   0.887425031109931   0.277984091630909   0.375000000000000   1.0000000
N2   N   0.055536749720370   0.444433621610134   0.875000000000000   1.0000000
N2   N   0.222205520465391   0.944436800061745   0.875000000000000   1.0000000
N2   N   0.555533730412613   0.944433531872974   0.875000000000000   1.0000000
N2   N   0.388873466116352   0.444435313238545   0.875000000000000   1.0000000
N2   N   0.888876600255712   0.944438288843170   0.875000000000000   1.0000000
N2   N   0.055492925779945   0.944162002589692   0.375000000000000   1.0000000
N2   N   0.722205340279080   0.444436665307153   0.875000000000000   1.0000000
N2   N   0.390817618545929   0.946796476531910   0.375000000000000   1.0000000
N2   N   0.220387191872328   0.443308943492077   0.375000000000000   1.0000000
N2   N   0.224277464838252   0.611125607722389   0.375000000000000   1.0000000
N2   N   0.721216510090907   0.942910506359141   0.375000000000000   1.0000000
N2   N   0.890118593071159   0.445815517815883   0.375000000000000   1.0000000
N2   N   0.055539321984955   0.611102167520940   0.875000000000000   1.0000000
N2   N   0.222207254396975   0.111104612230204   0.875000000000000   1.0000000
N2   N   0.722205340279080   0.611102008305262   0.875000000000000   1.0000000
N2   N   0.555538106649728   0.111102498193093   0.875000000000000   1.0000000
N2   N   0.888872571324253   0.111102952328801   0.875000000000000   1.0000000
B2   B   0.109428598667374   0.054808497319459   0.375000000000000   1.0000000
B2   B   0.615279093299683   0.542643230176416   0.375000000000000   1.0000000
B2   B   0.445518147679688   0.059025019402090   0.375000000000000   1.0000000
B2   B   0.947679750056967   0.556905401031683   0.375000000000000   1.0000000
B2   B   0.775835199857575   0.054584266595459   0.375000000000000   1.0000000
B2   B   0.111069058115131   0.722201195724227   0.875000000000000   1.0000000
B2   B   0.444433830055122   0.722228253692365   0.875000000000000   1.0000000
B2   B   0.277787952173605   0.222211891109687   0.875000000000000   1.0000000
B2   B   0.777767045387010   0.722192628587257   0.875000000000000   1.0000000
B2   B   0.611055651761230   0.222203580111167   0.875000000000000   1.0000000
B2   B   0.944447118750082   0.222243900753866   0.875000000000000   1.0000000
B2   B   0.279814167350750   0.722502510106453   0.375000000000000   1.0000000
B2   B   0.106471456436236   0.219902394884778   0.375000000000000   1.0000000
B2   B   0.447198932075035   0.229623195941550   0.375000000000000   1.0000000
B2   B   0.611155993092358   0.715192268978536   0.375000000000000   1.0000000
B2   B   0.947679750056967   0.724107682358620   0.375000000000000   1.0000000
B2   B   0.776388291317044   0.223022883038372   0.375000000000000   1.0000000
B2   B   0.111109700684324   0.888870916294945   0.875000000000000   1.0000000
B2   B   0.444396418327801   0.888864875830566   0.875000000000000   1.0000000
B2   B   0.277787952173605   0.388909394397246   0.875000000000000   1.0000000
B2   B   0.611091765170587   0.388865145682992   0.875000000000000   1.0000000
B2   B   0.777770350992866   0.888901349083716   0.875000000000000   1.0000000
B2   B   0.944405143880652   0.388869440628405   0.875000000000000   1.0000000
B2   B   0.109428598667374   0.387953434681243   0.375000000000000   1.0000000
B2   B   0.279814167350750   0.890644990577626   0.375000000000000   1.0000000
B2   B   0.610449095618185   0.886446650723026   0.375000000000000   1.0000000
B2   B   0.944369490390514   0.888418039813654   0.375000000000000   1.0000000
B2   B   0.778953066652856   0.391051755788753   0.375000000000000   1.0000000
B2   B   0.277737748673098   0.555528706370515   0.875000000000000   1.0000000
B2   B   0.111116493637606   0.055580084416774   0.875000000000000   1.0000000
B2   B   0.611091765170587   0.555559952820923   0.875000000000000   1.0000000
B2   B   0.444433830055122   0.055538909696092   0.875000000000000   1.0000000
B2   B   0.944439453791766   0.555533011164008   0.875000000000000   1.0000000
B2   B   0.113077043652166   0.555969754853993   0.375000000000000   1.0000000
B2   B   0.777733359025470   0.055533346179403   0.875000000000000   1.0000000
B2   B   0.279007264680471   0.057964167800720   0.375000000000000   1.0000000
B2   B   0.447198932075035   0.550909069466821   0.375000000000000   1.0000000
B2   B   0.783779382139981   0.558556357736658   0.375000000000000   1.0000000
B2   B   0.610449095618185   0.057335778228491   0.375000000000000   1.0000000
B2   B   0.444431977985775   0.555513982495345   0.875000000000000   1.0000000
B2   B   0.941854493760544   0.053836697048746   0.375000000000000   1.0000000
B2   B   0.277772641863510   0.722197000961212   0.875000000000000   1.0000000
B2   B   0.111083061664375   0.222208197498852   0.875000000000000   1.0000000
B2   B   0.444431977985775   0.222251328823764   0.875000000000000   1.0000000
B2   B   0.611055651761230   0.722185404983389   0.875000000000000   1.0000000
B2   B   0.944439453791766   0.722239775961092   0.875000000000000   1.0000000
B2   B   0.777770350992866   0.222202335242479   0.875000000000000   1.0000000
B2   B   0.113874501660736   0.723603917497032   0.375000000000000   1.0000000
B2   B   0.445518147679688   0.719826461610932   0.375000000000000   1.0000000
B2   B   0.272670714053055   0.221551666280544   0.375000000000000   1.0000000
B2   B   0.778953066652856   0.721234644197430   0.375000000000000   1.0000000
B2   B   0.611155993092358   0.229297057447150   0.375000000000000   1.0000000
B2   B   0.941854493760544   0.221351130045126   0.375000000000000   1.0000000
B2   B   0.111116493637606   0.388869742554161   0.875000000000000   1.0000000
B2   B   0.277772641863510   0.888908974235626   0.875000000000000   1.0000000
B2   B   0.611098493344283   0.888860365034351   0.875000000000000   1.0000000
B2   B   0.444390230796210   0.388861782064766   0.875000000000000   1.0000000
B2   B   0.944405143880652   0.888869036585577   0.875000000000000   1.0000000
B2   B   0.113077043652166   0.890440622131506   0.375000000000000   1.0000000
B2   B   0.777767045387010   0.388907750133083   0.875000000000000   1.0000000
B2   B   0.445373338244100   0.889353335788714   0.375000000000000   1.0000000
B2   B   0.272670714053055   0.384452381105838   0.375000000000000   1.0000000
B2   B   0.279007264680471   0.554376430213085   0.375000000000000   1.0000000
B2   B   0.615279093299683   0.405969196456596   0.375000000000000   1.0000000
B2   B   0.776388291317044   0.886698741612002   0.375000000000000   1.0000000
B2   B   0.944369490390514   0.389284783910187   0.375000000000000   1.0000000
B2   B   0.111109700684324   0.555572117722709   0.875000000000000   1.0000000
B2   B   0.277737748673098   0.055542375635919   0.875000000000000   1.0000000
B2   B   0.777725306374405   0.555529319853870   0.875000000000000   1.0000000
B2   B   0.611098493344283   0.055571461643267   0.875000000000000   1.0000000
B2   B   0.944447118750082   0.055536551329551   0.875000000000000   1.0000000
B2   B   0.055482910181855   0.111169382112265   0.124971316301046   1.0000000
B2   B   0.555494786830996   0.611111393375133   0.125292738420759   1.0000000
B2   B   0.388692701148208   0.111068162918881   0.125238647721273   1.0000000
B2   B   0.888721215642633   0.611027274487983   0.124976728500805   1.0000000
B2   B   0.722134607153409   0.110994473771503   0.125010270826093   1.0000000
B2   B   0.055551167963437   0.777700405943861   0.625012347878109   1.0000000
B2   B   0.388846177621703   0.777823864770143   0.624985618566754   1.0000000
B2   B   0.222018449267848   0.277675891300592   0.624767362536896   1.0000000
B2   B   0.721991733799232   0.777639976784148   0.624976682587071   1.0000000
B2   B   0.555494786830996   0.277716726789200   0.624707261579241   1.0000000
B2   B   0.888818634570513   0.277830762350155   0.625030399454200   1.0000000
B2   B   0.222045061959635   0.777689197646482   0.124976429538087   1.0000000
B2   B   0.055482910181855   0.277646861402926   0.124971316301046   1.0000000
B2   B   0.388892259290215   0.277946322162719   0.125897839998896   1.0000000
B2   B   0.555493804300480   0.777632242726112   0.125090147107993   1.0000000
B2   B   0.888858180798611   0.777847502877042   0.124979700279830   1.0000000
B2   B   0.721991733799232   0.277685090348418   0.125023317412937   1.0000000
B2   B   0.055352117012584   0.944358906773157   0.625032727923288   1.0000000
B2   B   0.388846177621703   0.944355646184894   0.624985618566754   1.0000000
B2   B   0.222197088367914   0.444479827834920   0.624842192851144   1.0000000
B2   B   0.555258259581650   0.444295796457489   0.624575782345311   1.0000000
B2   B   0.722134607153409   0.944473466715242   0.624989729173908   1.0000000
B2   B   0.888858180798611   0.444344011254905   0.625020299720170   1.0000000
B2   B   0.055352117012584   0.444326543572755   0.124967272076717   1.0000000
B2   B   0.222210317065325   0.944550774459424   0.125024150968048   1.0000000
B2   B   0.555319130616000   0.944326231974664   0.125008490793570   1.0000000
B2   B   0.388892259290215   0.444279270460831   0.125897839998896   1.0000000
B2   B   0.888818634570515   0.944321205553695   0.124969600545801   1.0000000
B2   B   0.722180371922205   0.444521374152295   0.125031613618598   1.0000000
B2   B   0.222210317065325   0.610992875939236   0.624975849031951   1.0000000
B2   B   0.055482910181855   0.111169382112265   0.625028683698953   1.0000000
B2   B   0.555494786830996   0.611111393375133   0.624707261579241   1.0000000
B2   B   0.388692701148208   0.111068162918881   0.624761352278726   1.0000000
B2   B   0.888721215642633   0.611027274487983   0.625023271499195   1.0000000
B2   B   0.055551167963437   0.611184095352912   0.124987652121891   1.0000000
B2   B   0.722134607153409   0.110994473771503   0.624989729173908   1.0000000
B2   B   0.222197088367914   0.111050593866336   0.125157807148856   1.0000000
B2   B   0.388692701148208   0.610957871562663   0.125238647721273   1.0000000
B2   B   0.722180371922205   0.610992331103246   0.125031613618598   1.0000000
B2   B   0.555493804300480   0.111194894907705   0.125090147107993   1.0000000
B2   B   0.388692701148208   0.610957871562663   0.624761352278726   1.0000000
B2   B   0.888633196107425   0.110983264720380   0.124951498181310   1.0000000
B2   B   0.222045061959635   0.777689197646482   0.625023570461914   1.0000000
B2   B   0.055482910181855   0.277646861402926   0.625028683698953   1.0000000
B2   B   0.388892259290215   0.277946322162719   0.624102160001105   1.0000000
B2   B   0.555493804300480   0.777632242726112   0.624909852892007   1.0000000
B2   B   0.888858180798611   0.777847502877042   0.625020299720170   1.0000000
B2   B   0.721991733799232   0.277685090348418   0.624976682587071   1.0000000
B2   B   0.055551167963437   0.777700405943861   0.124987652121891   1.0000000
B2   B   0.388846177621703   0.777823864770143   0.125014381433253   1.0000000
B2   B   0.222018449267848   0.277675891300592   0.125232637463104   1.0000000
B2   B   0.721991733799232   0.777639976784148   0.125023317412937   1.0000000
B2   B   0.555494786830996   0.277716726789200   0.125292738420759   1.0000000
B2   B   0.888818634570513   0.277830762350155   0.124969600545801   1.0000000
B2   B   0.055352117012584   0.444326543572755   0.625032727923288   1.0000000
B2   B   0.222210317065325   0.944550774459424   0.624975849031951   1.0000000
B2   B   0.555319130616000   0.944326231974664   0.624991509206430   1.0000000
B2   B   0.388892259290215   0.444279270460831   0.624102160001105   1.0000000
B2   B   0.888818634570515   0.944321205553695   0.625030399454200   1.0000000
B2   B   0.055352117012584   0.944358906773157   0.124967272076717   1.0000000
B2   B   0.722180371922205   0.444521374152295   0.624968386381402   1.0000000
B2   B   0.388846177621703   0.944355646184894   0.125014381433253   1.0000000
B2   B   0.222197088367914   0.444479827834920   0.125157807148856   1.0000000
B2   B   0.222210317065325   0.610992875939236   0.125024150968048   1.0000000
B2   B   0.555258259581650   0.444295796457489   0.125424217654681   1.0000000
B2   B   0.722134607153409   0.944473466715242   0.125010270826093   1.0000000
B2   B   0.888858180798611   0.444344011254905   0.124979700279830   1.0000000
B2   B   0.055551167963437   0.611184095352912   0.625012347878109   1.0000000
B2   B   0.222197088367914   0.111050593866336   0.624842192851144   1.0000000
B2   B   0.722180371922206   0.610992331103246   0.624968386381402   1.0000000
B2   B   0.555493804300480   0.111194894907705   0.624909852892007   1.0000000
B2   B   0.888633196107425   0.110983264720380   0.625048501818689   1.0000000


