data_1
_audit_creation_method   'vasp2cif'
_cell_length_a    14.93631414619966
_cell_length_b    14.936314146199727
_cell_length_c    13.341276283792837
_cell_angle_alpha    90.0
_cell_angle_beta    90.0
_cell_angle_gamma    119.99999999999984

_symmetry_space_group_name_H-M    'P 1'
loop_
_atom_site_label
_atom_site_type_symbol
_atom_site_fract_x
_atom_site_fract_y
_atom_site_fract_z
_atom_site_occupancy
Sb2   Sb   0.493325206360735   0.413329269847031   0.375000000000000   1.0000000
N2   N   0.111093327303230   0.055521976934952   0.125107108795453   1.0000000
N2   N   0.611102401195745   0.555584379620324   0.124326010578392   1.0000000
N2   N   0.444429525989253   0.055519371530481   0.125143842067780   1.0000000
N2   N   0.944424162832772   0.555551790148346   0.125256436519408   1.0000000
N2   N   0.777783927015669   0.055558630174504   0.125048896286143   1.0000000
N2   N   0.111089304362785   0.722211318848055   0.624880347851480   1.0000000
N2   N   0.444429525989253   0.722243487792109   0.624856157932220   1.0000000
N2   N   0.277736338637002   0.222173613111276   0.625382182671502   1.0000000
N2   N   0.777760485875569   0.722212485633761   0.624773809961327   1.0000000
N2   N   0.611094184472629   0.222187558308489   0.624981839137876   1.0000000
N2   N   0.944452156725600   0.222232779210412   0.624865289131190   1.0000000
N2   N   0.277758226379037   0.722225386141049   0.125152265791285   1.0000000
N2   N   0.111116564557937   0.222224948945633   0.125047006003196   1.0000000
N2   N   0.444433892432448   0.222184356448065   0.124720919025120   1.0000000
N2   N   0.611094184472629   0.722239959497469   0.125018160862125   1.0000000
N2   N   0.944424162832772   0.722205706017760   0.125256436519408   1.0000000
N2   N   0.777774895403485   0.222219513434543   0.125137300762117   1.0000000
N2   N   0.111091628380579   0.888861552130669   0.624841024608984   1.0000000
N2   N   0.444430506558676   0.888881919946002   0.624837141760778   1.0000000
N2   N   0.277736338637002   0.388896058859056   0.625382182671502   1.0000000
N2   N   0.611102401195745   0.388851354908746   0.625673989421609   1.0000000
N2   N   0.777774895403485   0.888888715302272   0.624862699237884   1.0000000
N2   N   0.944433485970522   0.388896621717069   0.624792058908992   1.0000000
N2   N   0.111093327303230   0.388904683701607   0.125107108795453   1.0000000
N2   N   0.277758226379037   0.888866173571315   0.125152265791285   1.0000000
N2   N   0.611104869598491   0.888898940411856   0.125116420571234   1.0000000
N2   N   0.444362276506226   0.388847804919777   0.124919923544047   1.0000000
N2   N   0.944433485970522   0.888870197586781   0.125207941091007   1.0000000
N2   N   0.777760485875569   0.388881333575137   0.125226190038672   1.0000000
N2   N   0.277760974324015   0.555576483609490   0.624926575056033   1.0000000
N2   N   0.111093327303230   0.055521976934952   0.624892891204548   1.0000000
N2   N   0.611102401195745   0.555584379620324   0.625673989421609   1.0000000
N2   N   0.444429525989253   0.055519371530481   0.624856157932220   1.0000000
N2   N   0.944424162832772   0.555551790148346   0.624743563480591   1.0000000
N2   N   0.111091628380579   0.555563409583240   0.125158975391015   1.0000000
N2   N   0.777783927015669   0.055558630174504   0.624951103713859   1.0000000
N2   N   0.277760974324015   0.055517824047861   0.125073424943966   1.0000000
N2   N   0.444433892432448   0.555582869317720   0.124720919025120   1.0000000
N2   N   0.777747892900210   0.555540613116774   0.125237441871782   1.0000000
N2   N   0.611104869598491   0.055539262519967   0.125116420571234   1.0000000
N2   N   0.444433892432448   0.555582869317720   0.625279080974881   1.0000000
N2   N   0.944452156725601   0.055552710848526   0.125134710868808   1.0000000
N2   N   0.277758226379037   0.722225386141049   0.624847734208713   1.0000000
N2   N   0.111116564557937   0.222224948945633   0.624952993996805   1.0000000
N2   N   0.444433892432448   0.222184356448065   0.625279080974881   1.0000000
N2   N   0.611094184472629   0.722239959497469   0.624981839137876   1.0000000
N2   N   0.944424162832772   0.722205706017760   0.624743563480591   1.0000000
N2   N   0.777774895403485   0.222219513434543   0.624862699237884   1.0000000
N2   N   0.111089304362785   0.722211318848055   0.125119652148520   1.0000000
N2   N   0.444429525989253   0.722243487792109   0.125143842067780   1.0000000
N2   N   0.277736338637002   0.222173613111276   0.124617817328499   1.0000000
N2   N   0.777760485875569   0.722212485633760   0.125226190038672   1.0000000
N2   N   0.611094184472629   0.222187558308489   0.125018160862125   1.0000000
N2   N   0.944452156725600   0.222232779210412   0.125134710868808   1.0000000
N2   N   0.111093327303230   0.388904683701607   0.624892891204548   1.0000000
N2   N   0.277758226379037   0.888866173571315   0.624847734208713   1.0000000
N2   N   0.611104869598491   0.888898940411856   0.624883579428765   1.0000000
N2   N   0.444362276506226   0.388847804919777   0.625080076455953   1.0000000
N2   N   0.944433485970522   0.888870197586781   0.624792058908992   1.0000000
N2   N   0.111091628380579   0.888861552130669   0.125158975391015   1.0000000
N2   N   0.777760485875569   0.388881333575137   0.624773809961327   1.0000000
N2   N   0.444430506558676   0.888881919946002   0.125162858239222   1.0000000
N2   N   0.277736338637002   0.388896058859056   0.124617817328499   1.0000000
N2   N   0.277760974324015   0.555576483609490   0.125073424943966   1.0000000
N2   N   0.611102401195745   0.388851354908746   0.124326010578392   1.0000000
N2   N   0.777774895403485   0.888888715302272   0.125137300762117   1.0000000
N2   N   0.944433485970522   0.388896621717069   0.125207941091007   1.0000000
N2   N   0.111091628380579   0.555563409583240   0.624841024608984   1.0000000
N2   N   0.277760974324015   0.055517824047861   0.624926575056033   1.0000000
N2   N   0.777747892900210   0.555540613116774   0.624762558128217   1.0000000
N2   N   0.611104869598491   0.055539262519967   0.624883579428765   1.0000000
N2   N   0.944452156725601   0.055552710848526   0.624865289131190   1.0000000
N2   N   0.058698446039162   0.112871307198209   0.375000000000000   1.0000000
N2   N   0.555773454126650   0.621049904024072   0.375000000000000   1.0000000
N2   N   0.387906069530827   0.104205182756209   0.375000000000000   1.0000000
N2   N   0.886641399615948   0.609987366474648   0.375000000000000   1.0000000
N2   N   0.724646501019169   0.111336341573733   0.375000000000000   1.0000000
N2   N   0.055533684974188   0.777768746070170   0.875000000000000   1.0000000
N2   N   0.388877745497099   0.777770899539114   0.875000000000000   1.0000000
N2   N   0.222201079448741   0.277767206391039   0.875000000000000   1.0000000
N2   N   0.722208033689938   0.777770378513810   0.875000000000000   1.0000000
N2   N   0.555539306514669   0.277770677671261   0.875000000000000   1.0000000
N2   N   0.888874608965177   0.277771232707334   0.875000000000000   1.0000000
N2   N   0.220770953205115   0.777052143269225   0.375000000000000   1.0000000
N2   N   0.058698446039162   0.279160472174289   0.375000000000000   1.0000000
N2   N   0.389532296236199   0.267123840579919   0.375000000000000   1.0000000
N2   N   0.556449492569859   0.782619825782381   0.375000000000000   1.0000000
N2   N   0.889427286326007   0.778789549736913   0.375000000000000   1.0000000
N2   N   0.724254035486705   0.276258188730429   0.375000000000000   1.0000000
N2   N   0.055535196112593   0.944435917319346   0.875000000000000   1.0000000
N2   N   0.388877745497099   0.944440179291322   0.875000000000000   1.0000000
N2   N   0.222201334310326   0.444432328713333   0.875000000000000   1.0000000
N2   N   0.555535395885563   0.444434364609446   0.875000000000000   1.0000000
N2   N   0.722208992510231   0.944437371823347   0.875000000000000   1.0000000
N2   N   0.888871335812374   0.444434003193749   0.875000000000000   1.0000000
N2   N   0.056285679625798   0.444992598792504   0.375000000000000   1.0000000
N2   N   0.221028545872600   0.942305554114485   0.375000000000000   1.0000000
N2   N   0.556543349310390   0.944938341321860   0.375000000000000   1.0000000
N2   N   0.389532296236199   0.455741788989616   0.375000000000000   1.0000000
N2   N   0.891400211055677   0.946544024538446   0.375000000000000   1.0000000
N2   N   0.722151239484171   0.442482583032236   0.375000000000000   1.0000000
N2   N   0.222203729147033   0.611098572863568   0.875000000000000   1.0000000
N2   N   0.055535390371279   0.111100862103117   0.875000000000000   1.0000000
N2   N   0.555539306514669   0.611101962176746   0.875000000000000   1.0000000
N2   N   0.388874914525503   0.111107385162928   0.875000000000000   1.0000000
N2   N   0.888867642023682   0.611100487678510   0.875000000000000   1.0000000
N2   N   0.054074579558748   0.610681281138753   0.375000000000000   1.0000000
N2   N   0.722208992510231   0.111104954020221   0.875000000000000   1.0000000
N2   N   0.223238434774781   0.110023912581269   0.375000000000000   1.0000000
N2   N   0.387906069530827   0.617034220107960   0.375000000000000   1.0000000
N2   N   0.722151239484171   0.613001989785271   0.375000000000000   1.0000000
N2   N   0.556449492569858   0.107163000120811   0.375000000000000   1.0000000
N2   N   0.388874914525503   0.611100862695917   0.875000000000000   1.0000000
N2   N   0.891948557035220   0.112640945184282   0.375000000000000   1.0000000
N2   N   0.222205041998180   0.777769187665758   0.875000000000000   1.0000000
N2   N   0.055535390371279   0.277767861601497   0.875000000000000   1.0000000
N2   N   0.388872945242655   0.277771946683266   0.875000000000000   1.0000000
N2   N   0.555542680281154   0.777770899693108   0.875000000000000   1.0000000
N2   N   0.888871335812374   0.777770665951959   0.875000000000000   1.0000000
N2   N   0.722208033689938   0.277770988509467   0.875000000000000   1.0000000
N2   N   0.054074579558749   0.776726631753333   0.375000000000000   1.0000000
N2   N   0.388248821298541   0.779428436181469   0.375000000000000   1.0000000
N2   N   0.226870774994575   0.280102054163955   0.375000000000000   1.0000000
N2   N   0.724254035486705   0.781329180089611   0.375000000000000   1.0000000
N2   N   0.555773454126649   0.268056883435912   0.375000000000000   1.0000000
N2   N   0.891400211055677   0.278189519850569   0.375000000000000   1.0000000
N2   N   0.055535196112593   0.444432612126575   0.875000000000000   1.0000000
N2   N   0.222203729147033   0.944438489616802   0.875000000000000   1.0000000
N2   N   0.555543525770811   0.944438429552070   0.875000000000000   1.0000000
N2   N   0.388872945242655   0.444434331892726   0.875000000000000   1.0000000
N2   N   0.888874608965177   0.944436709591179   0.875000000000000   1.0000000
N2   N   0.056285679625798   0.944626414166624   0.375000000000000   1.0000000
N2   N   0.722204744413608   0.444435614480309   0.875000000000000   1.0000000
N2   N   0.388248821298541   0.942153718450409   0.375000000000000   1.0000000
N2   N   0.223238434774781   0.446547855526847   0.375000000000000   1.0000000
N2   N   0.221028545872600   0.612056325091452   0.375000000000000   1.0000000
N2   N   0.724646501019169   0.946643492778769   0.375000000000000   1.0000000
N2   N   0.889427286326007   0.443971069922430   0.375000000000000   1.0000000
N2   N   0.055533684974188   0.611098272237353   0.875000000000000   1.0000000
N2   N   0.222201334310326   0.111102338930329   0.875000000000000   1.0000000
N2   N   0.722204744413608   0.611102463266635   0.875000000000000   1.0000000
N2   N   0.555542680281154   0.111105113921383   0.875000000000000   1.0000000
N2   N   0.888874486599565   0.111103909966453   0.875000000000000   1.0000000
B2   B   0.112362348097106   0.055635835924845   0.375000000000000   1.0000000
B2   B   0.615765334040821   0.574227402468716   0.375000000000000   1.0000000
B2   B   0.445017903190853   0.051350232983328   0.375000000000000   1.0000000
B2   B   0.943470601017170   0.555018446726769   0.375000000000000   1.0000000
B2   B   0.781031318161934   0.057182325747635   0.375000000000000   1.0000000
B2   B   0.111099860902758   0.722216597118042   0.875000000000000   1.0000000
B2   B   0.444427068375951   0.722237317887522   0.875000000000000   1.0000000
B2   B   0.277703410251784   0.222176541423479   0.875000000000000   1.0000000
B2   B   0.777795086141713   0.722261036051928   0.875000000000000   1.0000000
B2   B   0.611113163282983   0.222182571814985   0.875000000000000   1.0000000
B2   B   0.944423520083003   0.222204407359781   0.875000000000000   1.0000000
B2   B   0.276962363813341   0.722827760489569   0.375000000000000   1.0000000
B2   B   0.114817216677285   0.224075275005306   0.375000000000000   1.0000000
B2   B   0.443538354285254   0.211999695469412   0.375000000000000   1.0000000
B2   B   0.613860078627441   0.731166580000793   0.375000000000000   1.0000000
B2   B   0.943470601017170   0.721785487623738   0.375000000000000   1.0000000
B2   B   0.780817105437825   0.221825050229389   0.375000000000000   1.0000000
B2   B   0.111089915191180   0.888882028046675   0.875000000000000   1.0000000
B2   B   0.444433960360590   0.888883646846959   0.875000000000000   1.0000000
B2   B   0.277703410251784   0.388860202161633   0.875000000000000   1.0000000
B2   B   0.611115915064709   0.388863333062819   0.875000000000000   1.0000000
B2   B   0.777783907503754   0.888918559289452   0.875000000000000   1.0000000
B2   B   0.944439739711950   0.388868353223671   0.875000000000000   1.0000000
B2   B   0.112362348097106   0.390059845505590   0.375000000000000   1.0000000
B2   B   0.276962363813341   0.887467936657102   0.375000000000000   1.0000000
B2   B   0.613572785898234   0.892380234117586   0.375000000000000   1.0000000
B2   B   0.945773673161975   0.890197559419250   0.375000000000000   1.0000000
B2   B   0.779623634638440   0.387130968840752   0.375000000000000   1.0000000
B2   B   0.277734977297043   0.555546557798990   0.875000000000000   1.0000000
B2   B   0.111066966510224   0.055535753409337   0.875000000000000   1.0000000
B2   B   0.611115915064710   0.555585915335221   0.875000000000000   1.0000000
B2   B   0.444427068375951   0.055523083821766   0.875000000000000   1.0000000
B2   B   0.944451745962133   0.555548656886597   0.875000000000000   1.0000000
B2   B   0.110250877533833   0.555845616163180   0.375000000000000   1.0000000
B2   B   0.777776217796833   0.055554775565083   0.875000000000000   1.0000000
B2   B   0.276871176922591   0.052422353203923   0.375000000000000   1.0000000
B2   B   0.443538354285254   0.564871992149180   0.375000000000000   1.0000000
B2   B   0.776319961178722   0.554826647256031   0.375000000000000   1.0000000
B2   B   0.613572785898234   0.054525885113977   0.375000000000000   1.0000000
B2   B   0.444409119686677   0.555568858378549   0.875000000000000   1.0000000
B2   B   0.947647635055348   0.057612524704143   0.375000000000000   1.0000000
B2   B   0.277756880908509   0.722216426950734   0.875000000000000   1.0000000
B2   B   0.111052778276854   0.222193055805091   0.875000000000000   1.0000000
B2   B   0.444409119686677   0.222173594641466   0.875000000000000   1.0000000
B2   B   0.611113163282983   0.722263924801324   0.875000000000000   1.0000000
B2   B   0.944451745962133   0.722236422408871   0.875000000000000   1.0000000
B2   B   0.777783907503754   0.222198681547631   0.875000000000000   1.0000000
B2   B   0.109830194913839   0.721581764123584   0.375000000000000   1.0000000
B2   B   0.445017903190854   0.727001003540862   0.375000000000000   1.0000000
B2   B   0.279278902400259   0.220940820529684   0.375000000000000   1.0000000
B2   B   0.779623634638439   0.725825999131016   0.375000000000000   1.0000000
B2   B   0.613860078627442   0.216026831959977   0.375000000000000   1.0000000
B2   B   0.947647635055348   0.223368443684541   0.375000000000000   1.0000000
B2   B   0.111066966510224   0.388864546434217   0.875000000000000   1.0000000
B2   B   0.277756880908509   0.888873787291099   0.875000000000000   1.0000000
B2   B   0.611111943595032   0.888905997375734   0.875000000000000   1.0000000
B2   B   0.444391300513237   0.388862316923282   0.875000000000000   1.0000000
B2   B   0.944439739711950   0.888904719821609   0.875000000000000   1.0000000
B2   B   0.110250877533833   0.887738594703983   0.375000000000000   1.0000000
B2   B   0.777795086141713   0.388867383423114   0.875000000000000   1.0000000
B2   B   0.445133073205937   0.889233203269634   0.375000000000000   1.0000000
B2   B   0.279278902400259   0.391671415203903   0.375000000000000   1.0000000
B2   B   0.276871176922591   0.557782157052002   0.375000000000000   1.0000000
B2   B   0.615765334040821   0.374871264905435   0.375000000000000   1.0000000
B2   B   0.780817105437825   0.892325388541765   0.375000000000000   1.0000000
B2   B   0.945773673161975   0.388909447076054   0.375000000000000   1.0000000
B2   B   0.111089915191180   0.555541220477834   0.875000000000000   1.0000000
B2   B   0.277734977297043   0.055521752831389   0.875000000000000   1.0000000
B2   B   0.777797849030144   0.555565591181739   0.875000000000000   1.0000000
B2   B   0.611111943595032   0.055539279552627   0.875000000000000   1.0000000
B2   B   0.944423520083003   0.055552446056558   0.875000000000000   1.0000000
B2   B   0.055527433942639   0.111080550599825   0.124926807458017   1.0000000
B2   B   0.555522235226633   0.611273493509933   0.124055525551454   1.0000000
B2   B   0.388775722228266   0.110891787082085   0.124688941059044   1.0000000
B2   B   0.889021562844258   0.611177448088801   0.124952551426996   1.0000000
B2   B   0.722230252485994   0.111073622208551   0.124885186907147   1.0000000
B2   B   0.055600115212604   0.777789423726487   0.625035743658247   1.0000000
B2   B   0.388824897104360   0.777806951670548   0.625050031648189   1.0000000
B2   B   0.222100411899109   0.277716872616222   0.625511294617631   1.0000000
B2   B   0.722269668298830   0.777897955345755   0.625221274280393   1.0000000
B2   B   0.555522235226633   0.277582075050037   0.625944474448544   1.0000000
B2   B   0.888923279507222   0.277771691712697   0.625039613266982   1.0000000
B2   B   0.222195871729029   0.777764602531183   0.124948704003211   1.0000000
B2   B   0.055527433942639   0.277780216676149   0.124926807458017   1.0000000
B2   B   0.388623324848399   0.277431360078731   0.124117684649042   1.0000000
B2   B   0.555514345954506   0.777879005216099   0.124822315036555   1.0000000
B2   B   0.888981995740903   0.777851787200551   0.124964318864005   1.0000000
B2   B   0.722269668298830   0.277705046286410   0.124778725719609   1.0000000
B2   B   0.055553679443414   0.944415722580652   0.625021218983404   1.0000000
B2   B   0.388824897104360   0.944351278767147   0.625050031648189   1.0000000
B2   B   0.222106400941655   0.444485351686311   0.625293608721365   1.0000000
B2   B   0.555673642686403   0.444503488009866   0.626366950580460   1.0000000
B2   B   0.722230252485994   0.944489963610779   0.625114813092853   1.0000000
B2   B   0.888981995740903   0.444463541873687   0.625035681135994   1.0000000
B2   B   0.055553679443414   0.444471290196090   0.124978781016595   1.0000000
B2   B   0.222172171834450   0.944351479294283   0.124941822146790   1.0000000
B2   B   0.555521182071062   0.944427257702195   0.124930365497111   1.0000000
B2   B   0.388623324848399   0.444525298103004   0.124117684649042   1.0000000
B2   B   0.888923279507222   0.944484921127860   0.124960386733017   1.0000000
B2   B   0.722369292700111   0.444463702799932   0.124379078154937   1.0000000
B2   B   0.222172171834450   0.611154025873503   0.625058177853210   1.0000000
B2   B   0.055527433942639   0.111080550599825   0.625073192541983   1.0000000
B2   B   0.555522235226633   0.611273493509933   0.625944474448544   1.0000000
B2   B   0.388775722228265   0.110891787082085   0.625311058940957   1.0000000
B2   B   0.889021562844258   0.611177448088801   0.625047448573004   1.0000000
B2   B   0.055600115212604   0.611144024819453   0.124964256341754   1.0000000
B2   B   0.722230252485994   0.111073622208551   0.625114813092853   1.0000000
B2   B   0.222106400941655   0.110954382588679   0.124706391278636   1.0000000
B2   B   0.388775722228266   0.611217268479522   0.124688941059044   1.0000000
B2   B   0.722369292700111   0.611238923233512   0.124379078154937   1.0000000
B2   B   0.555514345954506   0.110968674071743   0.124822315036555   1.0000000
B2   B   0.388775722228266   0.611217268479522   0.625311058940957   1.0000000
B2   B   0.888902451972499   0.111117892652921   0.124928101062565   1.0000000
B2   B   0.222195871729029   0.777764602531183   0.625051295996790   1.0000000
B2   B   0.055527433942639   0.277780216676149   0.625073192541983   1.0000000
B2   B   0.388623324848399   0.277431360078731   0.625882315350957   1.0000000
B2   B   0.555514345954506   0.777879005216099   0.625177684963444   1.0000000
B2   B   0.888981995740903   0.777851787200551   0.625035681135994   1.0000000
B2   B   0.722269668298830   0.277705046286410   0.625221274280393   1.0000000
B2   B   0.055600115212604   0.777789423726487   0.124964256341754   1.0000000
B2   B   0.388824897104360   0.777806951670548   0.124949968351812   1.0000000
B2   B   0.222100411899109   0.277716872616222   0.124488705382368   1.0000000
B2   B   0.722269668298830   0.777897955345755   0.124778725719609   1.0000000
B2   B   0.555522235226633   0.277582075050037   0.124055525551454   1.0000000
B2   B   0.888923279507222   0.277771691712697   0.124960386733017   1.0000000
B2   B   0.055553679443414   0.444471290196090   0.625021218983404   1.0000000
B2   B   0.222172171834450   0.944351479294283   0.625058177853210   1.0000000
B2   B   0.555521182071062   0.944427257702195   0.625069634502890   1.0000000
B2   B   0.388623324848399   0.444525298103004   0.625882315350958   1.0000000
B2   B   0.888923279507222   0.944484921127860   0.625039613266982   1.0000000
B2   B   0.055553679443414   0.944415722580652   0.124978781016596   1.0000000
B2   B   0.722369292700111   0.444463702799932   0.625620921845063   1.0000000
B2   B   0.388824897104360   0.944351278767147   0.124949968351812   1.0000000
B2   B   0.222106400941655   0.444485351686311   0.124706391278636   1.0000000
B2   B   0.222172171834450   0.611154025873503   0.124941822146790   1.0000000
B2   B   0.555673642686403   0.444503488009866   0.123633049419539   1.0000000
B2   B   0.722230252485994   0.944489963610779   0.124885186907147   1.0000000
B2   B   0.888981995740903   0.444463541873687   0.124964318864005   1.0000000
B2   B   0.055600115212604   0.611144024819453   0.625035743658247   1.0000000
B2   B   0.222106400941655   0.110954382588679   0.625293608721365   1.0000000
B2   B   0.722369292700111   0.611238923233512   0.625620921845063   1.0000000
B2   B   0.555514345954506   0.110968674071743   0.625177684963444   1.0000000
B2   B   0.888902451972499   0.111117892652921   0.625071898937433   1.0000000


