data_1
_audit_creation_method   'vasp2cif'
_cell_length_a    17.52789999999977
_cell_length_b    17.52789999999977
_cell_length_c    15.0
_cell_angle_alpha    90.0
_cell_angle_beta    90.0
_cell_angle_gamma    119.99999999999916

_symmetry_space_group_name_H-M    'P 1'
loop_
_atom_site_label
_atom_site_type_symbol
_atom_site_fract_x
_atom_site_fract_y
_atom_site_fract_z
_atom_site_occupancy
B2   B   0.904315740773347   0.952166921897683   0.111022350810096   1.0000000
B2   B   0.904795710552994   0.095206058318049   0.111054552588900   1.0000000
B2   B   0.905028871526351   0.238064930620027   0.111056724511401   1.0000000
B2   B   0.905127229836565   0.380903593572814   0.111004348021166   1.0000000
B2   B   0.905509388577064   0.523895339067643   0.111028469952113   1.0000000
B2   B   0.905139727870881   0.666942265009564   0.111082566815662   1.0000000
B2   B   0.904880019920619   0.809884291079984   0.111058940686178   1.0000000
B2   B   0.047459669971688   0.952542052184301   0.110986153524851   1.0000000
B2   B   0.047834783869407   0.095685961418665   0.111022352000099   1.0000000
B2   B   0.048061295619279   0.238476098681484   0.111016374567261   1.0000000
B2   B   0.048030817668481   0.381122966215617   0.111024324318330   1.0000000
B2   B   0.047914618586613   0.523947532514244   0.111012868765634   1.0000000
B2   B   0.047652475658381   0.666883164366210   0.111020874683910   1.0000000
B2   B   0.047580754356156   0.809748131337956   0.110962475265447   1.0000000
B2   B   0.190253611682101   0.952420997682881   0.110962471729445   1.0000000
B2   B   0.190117419229982   0.095121723536476   0.111058938625178   1.0000000
B2   B   0.191561968959979   0.239443664481289   0.111046411407936   1.0000000
B2   B   0.191242428619426   0.381723817332673   0.110997873361199   1.0000000
B2   B   0.190624844350846   0.524203422790660   0.111077644681913   1.0000000
B2   B   0.190117455752649   0.666970149299576   0.111077905844217   1.0000000
B2   B   0.190268549441749   0.809733086896237   0.110994059967843   1.0000000
B2   B   0.333118503095744   0.952349165700787   0.111020871800912   1.0000000
B2   B   0.333059486837536   0.094862011878022   0.111082565811665   1.0000000
B2   B   0.332418188720729   0.237078122602109   0.111115268472230   1.0000000
B2   B   0.336167737334503   0.383834141032507   0.110973023664427   1.0000000
B2   B   0.333662579296961   0.525736517279795   0.111028992436391   1.0000000
B2   B   0.332511297096830   0.667490525515296   0.111104936353655   1.0000000
B2   B   0.333031502726419   0.809884228834308   0.111077904062218   1.0000000
B2   B   0.476054111401800   0.952086972864412   0.111012874061636   1.0000000
B2   B   0.476106381353347   0.094492280647962   0.111028483972116   1.0000000
B2   B   0.475960036149215   0.236424202474062   0.111094717499543   1.0000000
B2   B   0.473108062573853   0.374483506861036   0.110888362268564   1.0000000
B2   B   0.474265211709182   0.666339182953930   0.111028992107388   1.0000000
B2   B   0.475798364220384   0.809376985478096   0.111077644656909   1.0000000
B2   B   0.618878778674466   0.951970910055599   0.111024327051333   1.0000000
B2   B   0.619098064464274   0.094874384069511   0.111004355239165   1.0000000
B2   B   0.619209335383498   0.237673406273459   0.111017910104054   1.0000000
B2   B   0.619328066840500   0.380673732438583   0.110991577719724   1.0000000
B2   B   0.625518227204070   0.526893573137022   0.110888362094559   1.0000000
B2   B   0.616167516593522   0.663833860599432   0.110973021250429   1.0000000
B2   B   0.618277907397177   0.808759334993418   0.110997871526201   1.0000000
B2   B   0.761525623920476   0.951940452630595   0.111016376921261   1.0000000
B2   B   0.761936770283075   0.094972817481688   0.111056724015399   1.0000000
B2   B   0.762136408610667   0.237865214620292   0.111062823650587   1.0000000
B2   B   0.762328326106412   0.380792389243515   0.111017903527058   1.0000000
B2   B   0.763577666620882   0.524041735835806   0.111094710265543   1.0000000
B2   B   0.762923666475912   0.667583503836292   0.111115270031225   1.0000000
B2   B   0.760557991187639   0.808439694742010   0.111046412427941   1.0000000
N2   N   0.952279179660831   0.904947269809328   0.111001457111778   1.0000000
N2   N   0.952367071373360   0.047634648755549   0.111012712721341   1.0000000
N2   N   0.952692954862638   0.190542424964989   0.111030941421250   1.0000000
N2   N   0.952742769374539   0.333328638736584   0.111008559461479   1.0000000
N2   N   0.952837156960989   0.476156388627372   0.110966313949382   1.0000000
N2   N   0.952587326529583   0.619166849205462   0.111034521406368   1.0000000
N2   N   0.952417538969763   0.762151027867862   0.111018468614686   1.0000000
N2   N   0.095073813851642   0.904927951721404   0.110925574377511   1.0000000
N2   N   0.095054445109699   0.047722546832226   0.111001467618780   1.0000000
N2   N   0.096013408472660   0.191271384765384   0.111012020539344   1.0000000
N2   N   0.095874855317689   0.333738503892610   0.110984649904403   1.0000000
N2   N   0.095510530877840   0.476352441984418   0.111019028009500   1.0000000
N2   N   0.095094786783952   0.619185958834685   0.111020827281582   1.0000000
N2   N   0.095118926711422   0.762098956256980   0.110960951662850   1.0000000
N2   N   0.237902711369987   0.904882725667551   0.110960950739848   1.0000000
N2   N   0.237850715303995   0.047584238385302   0.111018458407682   1.0000000
N2   N   0.237694907738375   0.190311959171794   0.111076658165869   1.0000000
N2   N   0.240202852646804   0.335478188509175   0.110984030970145   1.0000000
N2   N   0.238567989460446   0.476821819562283   0.111030069772113   1.0000000
N2   N   0.237569804064231   0.619403205284022   0.111088530719060   1.0000000
N2   N   0.237829014713718   0.762172634729291   0.111045590790909   1.0000000
N2   N   0.380815684756336   0.904906836435015   0.111020817997581   1.0000000
N2   N   0.380834856108555   0.047414304322530   0.111034526966372   1.0000000
N2   N   0.380680944469566   0.189973483946765   0.111106594174244   1.0000000
N2   N   0.380220424381177   0.332526460428572   0.111018227930287   1.0000000
N2   N   0.383896422985218   0.480870204170260   0.110919495976913   1.0000000
N2   N   0.379809723418536   0.620192031416396   0.111046447763186   1.0000000
N2   N   0.380598593489017   0.762432054790685   0.111088537601057   1.0000000
N2   N   0.523649334332562   0.904491272185089   0.111019033277499   1.0000000
N2   N   0.523845268193736   0.047164387145027   0.110966331946378   1.0000000
N2   N   0.523903247756307   0.189493194633865   0.111037164943884   1.0000000
N2   N   0.523747665062858   0.331547654818691   0.111004423899552   1.0000000
N2   N   0.475660844584773   0.524340694158395   0.110768720869606   1.0000000
N2   N   0.519131342603871   0.616105076977759   0.110919499509909   1.0000000
N2   N   0.523179916739659   0.761433823622537   0.111030064745116   1.0000000
N2   N   0.666263251333343   0.904126928838364   0.110984648609404   1.0000000
N2   N   0.666673073753583   0.047258905007446   0.111008562172476   1.0000000
N2   N   0.666860055839592   0.190169867681197   0.111016539642691   1.0000000
N2   N   0.666897633424115   0.333104124744754   0.110984676503614   1.0000000
N2   N   0.668454280148163   0.476254109964180   0.111004419056549   1.0000000
N2   N   0.667475334760472   0.619781223768844   0.111018229238289   1.0000000
N2   N   0.664523414869763   0.759798797215223   0.110984026185144   1.0000000
N2   N   0.808730298492581   0.903988299614343   0.111012022212346   1.0000000
N2   N   0.809459344870019   0.047308828299376   0.111030944887249   1.0000000
N2   N   0.809723803606260   0.190277853824673   0.111060804387024   1.0000000
N2   N   0.809831760642918   0.333141587421298   0.111016534126691   1.0000000
N2   N   0.810508530407150   0.476098470278738   0.111037145614883   1.0000000
N2   N   0.810028349602139   0.619320806576458   0.111106593544241   1.0000000
N2   N   0.809689768672186   0.762306785924675   0.111076662917865   1.0000000


