data_1
_audit_creation_method   'vasp2cif'
_cell_length_a    14.93631414619966
_cell_length_b    14.936314146199727
_cell_length_c    13.341276283792837
_cell_angle_alpha    90.0
_cell_angle_beta    90.0
_cell_angle_gamma    119.99999999999984

_symmetry_space_group_name_H-M    'P 1'
loop_
_atom_site_label
_atom_site_type_symbol
_atom_site_fract_x
_atom_site_fract_y
_atom_site_fract_z
_atom_site_occupancy
Sn2   Sn   0.495424374154036   0.414378853743630   0.375000000000000   1.0000000
N2   N   0.111036707908653   0.055516895904624   0.125759545499593   1.0000000
N2   N   0.611228846595007   0.555780839857739   0.121033525463285   1.0000000
N2   N   0.444441321288072   0.055554598083739   0.125636629106373   1.0000000
N2   N   0.944406530638943   0.555526429598595   0.125415768145201   1.0000000
N2   N   0.777769124784307   0.055551229058817   0.125317097205622   1.0000000
N2   N   0.111082667234233   0.722208000283740   0.624559977343917   1.0000000
N2   N   0.444441321288072   0.722220056537669   0.624363370893723   1.0000000
N2   N   0.277616606346238   0.222128323579541   0.625975481252343   1.0000000
N2   N   0.777777647964770   0.722278071029807   0.625501844525617   1.0000000
N2   N   0.611124779256649   0.222168989120879   0.625532149751136   1.0000000
N2   N   0.944400075455654   0.222191497583945   0.624503158664978   1.0000000
N2   N   0.277763450919405   0.722209837672787   0.125614618206741   1.0000000
N2   N   0.111006418779055   0.222169876056185   0.125362044716220   1.0000000
N2   N   0.444442422107988   0.222230813877972   0.123789683381571   1.0000000
N2   N   0.611124779256649   0.722289123469076   0.124467850248888   1.0000000
N2   N   0.944406530638943   0.722213434373911   0.125415768145200   1.0000000
N2   N   0.777775206323584   0.222177861893609   0.125300835669522   1.0000000
N2   N   0.111079169096643   0.888881929883473   0.624254257880810   1.0000000
N2   N   0.444438495335021   0.888885914334183   0.624218138737428   1.0000000
N2   N   0.277616606346238   0.388821616100149   0.625975481252343   1.0000000
N2   N   0.611228846595007   0.388781340070668   0.628966474536806   1.0000000
N2   N   0.777775206323584   0.888930677763318   0.624699164330378   1.0000000
N2   N   0.944411683838262   0.388855411155004   0.624263312010086   1.0000000
N2   N   0.111036707908653   0.388853145337340   0.125759545499593   1.0000000
N2   N   0.277763450919405   0.888886946579934   0.125614618206741   1.0000000
N2   N   0.611109681776495   0.888907627404701   0.125605401440527   1.0000000
N2   N   0.444024141085049   0.388678737209245   0.120310500850535   1.0000000
N2   N   0.944411683838262   0.888889606016525   0.125736687989942   1.0000000
N2   N   0.777777647964770   0.388832910268018   0.124498155474423   1.0000000
N2   N   0.277758038452923   0.555534439118595   0.624408270754241   1.0000000
N2   N   0.111036707908653   0.055516895904623   0.624240454500495   1.0000000
N2   N   0.611228846595007   0.555780839857739   0.628966474536806   1.0000000
N2   N   0.444441321288072   0.055554598083739   0.624363370893723   1.0000000
N2   N   0.944406530638943   0.555526429598595   0.624584231854835   1.0000000
N2   N   0.111079169096643   0.555530572546598   0.125745742119248   1.0000000
N2   N   0.777769124784307   0.055551229058818   0.624682902794364   1.0000000
N2   N   0.277758038452923   0.055556932667732   0.125591729245828   1.0000000
N2   N   0.444442422107988   0.555544941563357   0.123789683381571   1.0000000
N2   N   0.777760213018114   0.555546773175730   0.123863951999398   1.0000000
N2   N   0.611109681776495   0.055535387705137   0.125605401440527   1.0000000
N2   N   0.444442422107986   0.555544941563357   0.626210316618436   1.0000000
N2   N   0.944400075455654   0.055541911205023   0.125496841334934   1.0000000
N2   N   0.277763450919405   0.722209837672787   0.624385381793198   1.0000000
N2   N   0.111006418779052   0.222169876056185   0.624637955283712   1.0000000
N2   N   0.444442422107988   0.222230813877972   0.626210316618436   1.0000000
N2   N   0.611124779256653   0.722289123469076   0.625532149751136   1.0000000
N2   N   0.944406530638943   0.722213434373911   0.624584231854835   1.0000000
N2   N   0.777775206323584   0.222177861893608   0.624699164330378   1.0000000
N2   N   0.111082667234233   0.722208000283740   0.125440022656111   1.0000000
N2   N   0.444441321288072   0.722220056537669   0.125636629106373   1.0000000
N2   N   0.277616606346238   0.222128323579541   0.124024518747464   1.0000000
N2   N   0.777777647964770   0.722278071029807   0.124498155474426   1.0000000
N2   N   0.611124779256649   0.222168989120879   0.124467850248906   1.0000000
N2   N   0.944400075455684   0.222191497583945   0.125496841334934   1.0000000
N2   N   0.111036707908653   0.388853145337340   0.624240454500495   1.0000000
N2   N   0.277763450919405   0.888886946579934   0.624385381793198   1.0000000
N2   N   0.611109681776495   0.888907627404701   0.624394598559469   1.0000000
N2   N   0.444024141085049   0.388678737209246   0.629689499149522   1.0000000
N2   N   0.944411683838262   0.888889606016525   0.624263312010086   1.0000000
N2   N   0.111079169096643   0.888881929883473   0.125745742119248   1.0000000
N2   N   0.777777647964770   0.388832910268018   0.625501844525617   1.0000000
N2   N   0.444438495335021   0.888885914334144   0.125781861262630   1.0000000
N2   N   0.277616606346238   0.388821616100149   0.124024518747465   1.0000000
N2   N   0.277758038452923   0.555534439118595   0.125591729245828   1.0000000
N2   N   0.611228846595007   0.388781340070668   0.121033525463287   1.0000000
N2   N   0.777775206323584   0.888930677763318   0.125300835669522   1.0000000
N2   N   0.944411683838262   0.388855411155004   0.125736687989942   1.0000000
N2   N   0.111079169096643   0.555530572546598   0.624254257880810   1.0000000
N2   N   0.277758038452923   0.055556932667732   0.624408270754241   1.0000000
N2   N   0.777760213018114   0.555546773175730   0.626136048000699   1.0000000
N2   N   0.611109681776495   0.055535387705137   0.624394598559469   1.0000000
N2   N   0.944400075455654   0.055541911205023   0.624503158664976   1.0000000
N2   N   0.056604677558326   0.111759984350691   0.375000000000000   1.0000000
N2   N   0.553914166233558   0.620143400211537   0.375000000000000   1.0000000
N2   N   0.385854075305038   0.102611858507791   0.375000000000000   1.0000000
N2   N   0.886032256088112   0.609682794710734   0.375000000000000   1.0000000
N2   N   0.722661269507360   0.110401495223551   0.375000000000000   1.0000000
N2   N   0.055883382595718   0.777937796258186   0.875000000000000   1.0000000
N2   N   0.389197682378036   0.777939862297035   0.875000000000000   1.0000000
N2   N   0.222531718085201   0.277932525709301   0.875000000000000   1.0000000
N2   N   0.722537051198744   0.777926515287329   0.875000000000000   1.0000000
N2   N   0.555847281079746   0.277912819944317   0.875000000000000   1.0000000
N2   N   0.889205661176914   0.277946103410396   0.875000000000000   1.0000000
N2   N   0.219061430299463   0.776197381816458   0.375000000000000   1.0000000
N2   N   0.056604677558326   0.278178026540971   0.375000000000000   1.0000000
N2   N   0.386461319467200   0.264594569975298   0.375000000000000   1.0000000
N2   N   0.554475192607745   0.781654061662278   0.375000000000000   1.0000000
N2   N   0.887959823635418   0.777957612367210   0.375000000000000   1.0000000
N2   N   0.722448325945024   0.275540807266024   0.375000000000000   1.0000000
N2   N   0.055869554075697   0.944592895477339   0.875000000000000   1.0000000
N2   N   0.389197682378036   0.944591153414328   0.875000000000000   1.0000000
N2   N   0.222526846812732   0.444613768205174   0.875000000000000   1.0000000
N2   N   0.555862669569073   0.444598001451201   0.875000000000000   1.0000000
N2   N   0.722535598039157   0.944597362540690   0.875000000000000   1.0000000
N2   N   0.889218768232393   0.444617503857887   0.875000000000000   1.0000000
N2   N   0.054256126114278   0.444202836844208   0.375000000000000   1.0000000
N2   N   0.219144199256070   0.941115615009065   0.375000000000000   1.0000000
N2   N   0.554613597749447   0.943973465541362   0.375000000000000   1.0000000
N2   N   0.386461319467250   0.455200082825203   0.375000000000000   1.0000000
N2   N   0.889439176587468   0.945464974565549   0.375000000000000   1.0000000
N2   N   0.721775789599634   0.442346852110502   0.375000000000000   1.0000000
N2   N   0.222526065345667   0.611274118793324   0.875000000000000   1.0000000
N2   N   0.055866003187343   0.111258848783098   0.875000000000000   1.0000000
N2   N   0.555847281079746   0.611267794468817   0.875000000000000   1.0000000
N2   N   0.389183392465137   0.111236039884912   0.875000000000000   1.0000000
N2   N   0.889239481804845   0.611286407569165   0.875000000000000   1.0000000
N2   N   0.052683821538020   0.610026880011430   0.375000000000000   1.0000000
N2   N   0.722535598039157   0.111271568831817   0.875000000000000   1.0000000
N2   N   0.220574227842689   0.108120216312224   0.375000000000000   1.0000000
N2   N   0.385854075305038   0.616575550130516   0.375000000000000   1.0000000
N2   N   0.721775789599634   0.612762270822393   0.375000000000000   1.0000000
N2   N   0.554475192607745   0.106154464278766   0.375000000000000   1.0000000
N2   N   0.389183392465137   0.611280685913522   0.875000000000000   1.0000000
N2   N   0.889895877377178   0.111614605355280   0.375000000000000   1.0000000
N2   N   0.222536923102005   0.777935128217733   0.875000000000000   1.0000000
N2   N   0.055866003187343   0.277940487737629   0.875000000000000   1.0000000
N2   N   0.389184202534539   0.277897956559535   0.875000000000000   1.0000000
N2   N   0.555861378317931   0.777934207453220   0.875000000000000   1.0000000
N2   N   0.889218768232393   0.777934597707919   0.875000000000000   1.0000000
N2   N   0.722537051198744   0.277943869244780   0.875000000000000   1.0000000
N2   N   0.052683821538020   0.775990274859927   0.375000000000000   1.0000000
N2   N   0.386330579642305   0.778661306854853   0.375000000000000   1.0000000
N2   N   0.224758125602542   0.279045729467971   0.375000000000000   1.0000000
N2   N   0.722448325945024   0.780240852012364   0.375000000000000   1.0000000
N2   N   0.553914166233555   0.267104099355392   0.375000000000000   1.0000000
N2   N   0.889439176587468   0.277307535355140   0.375000000000000   1.0000000
N2   N   0.055869554075697   0.444609991931861   0.875000000000000   1.0000000
N2   N   0.222526065345667   0.944585279885702   0.875000000000000   1.0000000
N2   N   0.555867291018775   0.944600312176113   0.875000000000000   1.0000000
N2   N   0.389184202534539   0.444619579308341   0.875000000000000   1.0000000
N2   N   0.889205661176914   0.944592891099801   0.875000000000000   1.0000000
N2   N   0.054256126114282   0.943386622603404   0.375000000000000   1.0000000
N2   N   0.722562052080849   0.444622345074517   0.875000000000000   1.0000000
N2   N   0.386330579642305   0.941002606120791   0.375000000000000   1.0000000
N2   N   0.220574227842689   0.445787344863782   0.375000000000000   1.0000000
N2   N   0.219144199256070   0.611361917580505   0.375000000000000   1.0000000
N2   N   0.722661269507319   0.945593107617072   0.375000000000000   1.0000000
N2   N   0.887959823635418   0.443335544601563   0.375000000000000   1.0000000
N2   N   0.055883382595718   0.611278919671002   0.875000000000000   1.0000000
N2   N   0.222526846812732   0.111246411940852   0.875000000000000   1.0000000
N2   N   0.722562052080849   0.611273040339788   0.875000000000000   1.0000000
N2   N   0.555861378317931   0.111260504198048   0.875000000000000   1.0000000
N2   N   0.889202481713002   0.111267907523137   0.875000000000000   1.0000000
B2   B   0.110558847293342   0.054529582796149   0.375000000000000   1.0000000
B2   B   0.612200675033271   0.568130017641985   0.375000000000000   1.0000000
B2   B   0.443049363781696   0.050653522915506   0.375000000000000   1.0000000
B2   B   0.941744177039480   0.554380344918807   0.375000000000000   1.0000000
B2   B   0.778828978265154   0.056081155799222   0.375000000000000   1.0000000
B2   B   0.111421020053593   0.722377176693469   0.875000000000000   1.0000000
B2   B   0.444748976438072   0.722338551890756   0.875000000000000   1.0000000
B2   B   0.278161563740703   0.222423343857072   0.875000000000000   1.0000000
B2   B   0.778047635067235   0.722293016520163   0.875000000000000   1.0000000
B2   B   0.611387091851124   0.222436759269569   0.875000000000000   1.0000000
B2   B   0.944776986871419   0.222401287786196   0.875000000000000   1.0000000
B2   B   0.275227213264620   0.721937451129885   0.375000000000000   1.0000000
B2   B   0.113801508082017   0.223567420707685   0.375000000000000   1.0000000
B2   B   0.441676992435069   0.211976691198902   0.375000000000000   1.0000000
B2   B   0.611001096366378   0.728200847957861   0.375000000000000   1.0000000
B2   B   0.941744177039480   0.720697165453690   0.375000000000000   1.0000000
B2   B   0.778456242446957   0.221315577106093   0.375000000000000   1.0000000
B2   B   0.111433121081570   0.889047887920957   0.875000000000000   1.0000000
B2   B   0.444752785293261   0.889043059313337   0.875000000000000   1.0000000
B2   B   0.278161563740703   0.389071553216934   0.875000000000000   1.0000000
B2   B   0.611371052592640   0.389091094319688   0.875000000000000   1.0000000
B2   B   0.778071174356766   0.888988721116395   0.875000000000000   1.0000000
B2   B   0.944751807100001   0.389070568548044   0.875000000000000   1.0000000
B2   B   0.110558847293342   0.389362597830541   0.375000000000000   1.0000000
B2   B   0.275227213264620   0.886623095468075   0.375000000000000   1.0000000
B2   B   0.611336689713153   0.890903505360788   0.375000000000000   1.0000000
B2   B   0.943730420287635   0.888810122298757   0.375000000000000   1.0000000
B2   B   0.777272964607047   0.387120595000082   0.375000000000000   1.0000000
B2   B   0.278116318213940   0.555706781824349   0.875000000000000   1.0000000
B2   B   0.111455450090919   0.055726675786146   0.875000000000000   1.0000000
B2   B   0.611371052592640   0.555613291606262   0.875000000000000   1.0000000
B2   B   0.444748976438072   0.055743757880574   0.875000000000000   1.0000000
B2   B   0.944743164647857   0.555722456558019   0.875000000000000   1.0000000
B2   B   0.108575144663530   0.555095376441508   0.375000000000000   1.0000000
B2   B   0.778084113442073   0.055708723387659   0.875000000000000   1.0000000
B2   B   0.275348479771153   0.051745807046170   0.375000000000000   1.0000000
B2   B   0.441676992435069   0.563033634569512   0.375000000000000   1.0000000
B2   B   0.774302845897914   0.553818089615646   0.375000000000000   1.0000000
B2   B   0.611336689713153   0.053766517685794   0.375000000000000   1.0000000
B2   B   0.444769019904625   0.555669974630755   0.875000000000000   1.0000000
B2   B   0.945745032254199   0.056524751190814   0.375000000000000   1.0000000
B2   B   0.278097938752749   0.722372331866828   0.875000000000000   1.0000000
B2   B   0.111485837647259   0.222409585490305   0.875000000000000   1.0000000
B2   B   0.444769019904625   0.222432378607277   0.875000000000000   1.0000000
B2   B   0.611387091851124   0.722283665914964   0.875000000000000   1.0000000
B2   B   0.944743164647857   0.722354041423281   0.875000000000000   1.0000000
B2   B   0.778071174356766   0.222415786573753   0.875000000000000   1.0000000
B2   B   0.108175729957898   0.720754531645655   0.375000000000000   1.0000000
B2   B   0.443049363781696   0.725729174199443   0.375000000000000   1.0000000
B2   B   0.278863852717545   0.220181689632081   0.375000000000000   1.0000000
B2   B   0.777272964607047   0.723485702940267   0.375000000000000   1.0000000
B2   B   0.611001096366378   0.216133581741825   0.375000000000000   1.0000000
B2   B   0.945745032254199   0.222553614396714   0.375000000000000   1.0000000
B2   B   0.111455450090919   0.389062107638096   0.875000000000000   1.0000000
B2   B   0.278097938752749   0.889058940219306   0.875000000000000   1.0000000
B2   B   0.611407418424761   0.889009495712902   0.875000000000000   1.0000000
B2   B   0.444822455106473   0.389077894219922   0.875000000000000   1.0000000
B2   B   0.944751807100001   0.889014571885226   0.875000000000000   1.0000000
B2   B   0.108575144663530   0.886813101555188   0.375000000000000   1.0000000
B2   B   0.778047635067235   0.389087951880340   0.875000000000000   1.0000000
B2   B   0.443170972230392   0.888252152781974   0.375000000000000   1.0000000
B2   B   0.278863852717545   0.392015496418833   0.375000000000000   1.0000000
B2   B   0.275348479771153   0.556936006058402   0.375000000000000   1.0000000
B2   B   0.612200675033271   0.377403990724724   0.375000000000000   1.0000000
B2   B   0.778456242446957   0.890473998674227   0.375000000000000   1.0000000
B2   B   0.943730420287635   0.388253631322357   0.375000000000000   1.0000000
B2   B   0.111433121081570   0.555718566493950   0.875000000000000   1.0000000
B2   B   0.278116318213940   0.055742869722854   0.875000000000000   1.0000000
B2   B   0.778044661498120   0.555688997415707   0.875000000000000   1.0000000
B2   B   0.611407418424761   0.055731256045279   0.875000000000000   1.0000000
B2   B   0.944776986871419   0.055709032418537   0.875000000000000   1.0000000
B2   B   0.055554632027337   0.111137114461209   0.125756352248105   1.0000000
B2   B   0.555625727300299   0.610935922988161   0.123523611969193   1.0000000
B2   B   0.388978063199692   0.111343312916538   0.125453781081457   1.0000000
B2   B   0.888632024925491   0.610982679129362   0.125189438363838   1.0000000
B2   B   0.722205630637965   0.111113368135864   0.125551627224436   1.0000000
B2   B   0.055467102453274   0.777753713499891   0.624303369600022   1.0000000
B2   B   0.388921708935936   0.777730759390536   0.624113647601777   1.0000000
B2   B   0.222255872420118   0.277794602876715   0.625155704929680   1.0000000
B2   B   0.722144458214208   0.777704717301158   0.625035019219746   1.0000000
B2   B   0.555625727300299   0.278023137645463   0.626476388030788   1.0000000
B2   B   0.888843146101462   0.277743953901278   0.624330653407748   1.0000000
B2   B   0.222211088486205   0.777772210909682   0.125649473737962   1.0000000
B2   B   0.055554632027339   0.277750850899509   0.125756352248130   1.0000000
B2   B   0.388879382871027   0.277911122579261   0.123160311321860   1.0000000
B2   B   0.555571960155417   0.777701954886337   0.125523089923534   1.0000000
B2   B   0.888751810208107   0.777712386427103   0.125454608152490   1.0000000
B2   B   0.722144458214208   0.277773074246589   0.124964980780225   1.0000000
B2   B   0.055519767618248   0.944469668179461   0.624002831714304   1.0000000
B2   B   0.388921708935936   0.944524282878798   0.624113647601777   1.0000000
B2   B   0.222251069829860   0.444366769921523   0.624465478119865   1.0000000
B2   B   0.555467664243814   0.444400498788571   0.625041234772994   1.0000000
B2   B   0.722205630637965   0.944425595835431   0.624448372775550   1.0000000
B2   B   0.888751810208107   0.444372757114430   0.624545391847515   1.0000000
B2   B   0.055519767618248   0.444383432772004   0.125997168285628   1.0000000
B2   B   0.222244719732525   0.944545319421085   0.125875039714606   1.0000000
B2   B   0.555566709035666   0.944450021184424   0.125877168336443   1.0000000
B2   B   0.388879382871027   0.444301593625121   0.123160311321860   1.0000000
B2   B   0.888843146101462   0.944432525533378   0.125669346592244   1.0000000
B2   B   0.721901354391239   0.444298353145564   0.123445519528261   1.0000000
B2   B   0.222244719732525   0.611032733644691   0.624124960285324   1.0000000
B2   B   0.055554632027337   0.111137114461209   0.624243647751871   1.0000000
B2   B   0.555625727300299   0.610935922988161   0.626476388030788   1.0000000
B2   B   0.388978063199692   0.111343312916537   0.624546218918589   1.0000000
B2   B   0.888632024925491   0.610982679129362   0.624810561636245   1.0000000
B2   B   0.055467102453274   0.611046722286680   0.125696630399894   1.0000000
B2   B   0.722205630637965   0.111113368135864   0.624448372775550   1.0000000
B2   B   0.222251069829860   0.111217633241668   0.125534521880181   1.0000000
B2   B   0.388978063199692   0.610968083616417   0.125453781081457   1.0000000
B2   B   0.721901354391239   0.610936334578937   0.123445519528261   1.0000000
B2   B   0.555571960155417   0.111203338602447   0.125523089923534   1.0000000
B2   B   0.388978063199692   0.610968083616417   0.624546218918595   1.0000000
B2   B   0.888870231394937   0.111101782364084   0.125541155769473   1.0000000
B2   B   0.222211088486207   0.777772210909682   0.624350526262009   1.0000000
B2   B   0.055554632027341   0.277750850899509   0.624243647751871   1.0000000
B2   B   0.388879382871027   0.277911122579258   0.626839688678109   1.0000000
B2   B   0.555571960155417   0.777701954886337   0.624476910076393   1.0000000
B2   B   0.888751810208107   0.777712386427103   0.624545391847515   1.0000000
B2   B   0.722144458214208   0.277773074246589   0.625035019219746   1.0000000
B2   B   0.055467102453274   0.777753713499891   0.125696630399894   1.0000000
B2   B   0.388921708935936   0.777730759390536   0.125886352398214   1.0000000
B2   B   0.222255872420118   0.277794602876715   0.124844295070275   1.0000000
B2   B   0.722144458214208   0.777704717301158   0.124964980780223   1.0000000
B2   B   0.555625727300299   0.278023137645463   0.123523611969192   1.0000000
B2   B   0.888843146101462   0.277743953901278   0.125669346592244   1.0000000
B2   B   0.055519767618248   0.444383432772004   0.624002831714304   1.0000000
B2   B   0.222244719732525   0.944545319421085   0.624124960285324   1.0000000
B2   B   0.555566709035666   0.944450021184424   0.624122831663401   1.0000000
B2   B   0.388879382871027   0.444301593625121   0.626839688678109   1.0000000
B2   B   0.888843146101462   0.944432525533378   0.624330653407748   1.0000000
B2   B   0.055519767618248   0.944469668179461   0.125997168285628   1.0000000
B2   B   0.721901354391239   0.444298353145564   0.626554480471782   1.0000000
B2   B   0.388921708935936   0.944524282878798   0.125886352398214   1.0000000
B2   B   0.222251069829860   0.444366769921523   0.125534521880181   1.0000000
B2   B   0.222244719732525   0.611032733644691   0.125875039714606   1.0000000
B2   B   0.555467664243814   0.444400498788571   0.124958765227057   1.0000000
B2   B   0.722205630637965   0.944425595835431   0.125551627224436   1.0000000
B2   B   0.888751810208107   0.444372757114430   0.125454608152490   1.0000000
B2   B   0.055467102453274   0.611046722286680   0.624303369600022   1.0000000
B2   B   0.222251069829860   0.111217633241668   0.624465478119865   1.0000000
B2   B   0.721901354391239   0.610936334578937   0.626554480471782   1.0000000
B2   B   0.555571960155417   0.111203338602447   0.624476910076393   1.0000000
B2   B   0.888870231394937   0.111101782364084   0.624458844230504   1.0000000


