data_1
_audit_creation_method   'vasp2cif'
_cell_length_a    14.93631414619966
_cell_length_b    14.936314146199727
_cell_length_c    13.341276283792837
_cell_angle_alpha    90.0
_cell_angle_beta    90.0
_cell_angle_gamma    119.99999999999984

_symmetry_space_group_name_H-M    'P 1'
loop_
_atom_site_label
_atom_site_type_symbol
_atom_site_fract_x
_atom_site_fract_y
_atom_site_fract_z
_atom_site_occupancy
Ge2   Ge   0.444444444444443   0.388888888888886   0.375000000000000   1.0000000
N2   N   0.111095233516836   0.055537924221450   0.125028587898316   1.0000000
N2   N   0.611126467014071   0.555568982692754   0.127402028603509   1.0000000
N2   N   0.444442690704593   0.055537924221450   0.125028587898316   1.0000000
N2   N   0.944451262634870   0.555560803099073   0.124812322709934   1.0000000
N2   N   0.777777777777779   0.055555555555557   0.124505923699134   1.0000000
N2   N   0.111111111111114   0.722222222222221   0.625426176846077   1.0000000
N2   N   0.444442690704593   0.722238099816577   0.624971412101649   1.0000000
N2   N   0.277764350640569   0.222206866319216   0.622597971396534   1.0000000
N2   N   0.777795409112042   0.722238099816577   0.624971412101649   1.0000000
N2   N   0.611110674371033   0.222222658962302   0.624628930413305   1.0000000
N2   N   0.944442646116549   0.222221358692114   0.625288746959075   1.0000000
N2   N   0.277772530234021   0.722223792868898   0.124812322709934   1.0000000
N2   N   0.111111984591255   0.222222658962302   0.125371069586624   1.0000000
N2   N   0.444442515678734   0.222206866319216   0.127402028603509   1.0000000
N2   N   0.611110674371033   0.722221348742010   0.125371069586624   1.0000000
N2   N   0.944451262634870   0.722223792868898   0.124812322709934   1.0000000
N2   N   0.777778712575742   0.222221358692114   0.124711253040883   1.0000000
N2   N   0.111109540464459   0.888882070698458   0.625187677290185   1.0000000
N2   N   0.444446390467341   0.888889861900354   0.625196580860797   1.0000000
N2   N   0.277764350640569   0.388890817654595   0.622597971396534   1.0000000
N2   N   0.611126467014071   0.388890817654595   0.622597971396534   1.0000000
N2   N   0.777778712575742   0.888890687216780   0.625288746959075   1.0000000
N2   N   0.944443471432975   0.388886942865988   0.625196580860797   1.0000000
N2   N   0.111095233516836   0.388890642628736   0.125028587898316   1.0000000
N2   N   0.277772530234021   0.888882070698458   0.124812322709934   1.0000000
N2   N   0.611111974641121   0.888890687216780   0.124711253040883   1.0000000
N2   N   0.444444444444443   0.388888888888886   0.134245350742260   1.0000000
N2   N   0.944443471432975   0.888889861900354   0.124803419139125   1.0000000
N2   N   0.777795409112042   0.388890642628715   0.125028587898316   1.0000000
N2   N   0.277773457778131   0.555559875555226   0.624501928547533   1.0000000
N2   N   0.111095233516836   0.055537924221450   0.624971412101649   1.0000000
N2   N   0.611126467014071   0.555568982692754   0.622597971396534   1.0000000
N2   N   0.444442690704593   0.055537924221450   0.624971412101649   1.0000000
N2   N   0.944451262634870   0.555560803099073   0.625187677290185   1.0000000
N2   N   0.111109540464459   0.555560803099073   0.124812322709934   1.0000000
N2   N   0.777777777777779   0.055555555555557   0.625494076300604   1.0000000
N2   N   0.277773457778131   0.055546915556169   0.125498071452539   1.0000000
N2   N   0.444442515678734   0.555568982692754   0.127402028603509   1.0000000
N2   N   0.777786417777074   0.555559875555226   0.125498071452539   1.0000000
N2   N   0.611111974641121   0.055554620757714   0.124711253040883   1.0000000
N2   N   0.444442515678734   0.555568982692754   0.622597971396534   1.0000000
N2   N   0.944442646116549   0.055554620757714   0.124711253040883   1.0000000
N2   N   0.277772530234021   0.722223792868898   0.625187677290185   1.0000000
N2   N   0.111111984591255   0.222222658962302   0.624628930413305   1.0000000
N2   N   0.444442515678734   0.222206866319216   0.622597971396534   1.0000000
N2   N   0.611110674371033   0.722221348742010   0.624628930413305   1.0000000
N2   N   0.944451262634870   0.722223792868898   0.625187677290185   1.0000000
N2   N   0.777778712575742   0.222221358692114   0.625288746959075   1.0000000
N2   N   0.111111111111114   0.722222222222221   0.124573823153817   1.0000000
N2   N   0.444442690704593   0.722238099816577   0.125028587898316   1.0000000
N2   N   0.277764350640569   0.222206866319216   0.127402028603516   1.0000000
N2   N   0.777795409112042   0.722238099816577   0.125028587898316   1.0000000
N2   N   0.611110674371033   0.222222658962302   0.125371069586624   1.0000000
N2   N   0.944442646116549   0.222221358692114   0.124711253040883   1.0000000
N2   N   0.111095233516836   0.388890642628736   0.624971412101649   1.0000000
N2   N   0.277772530234021   0.888882070698458   0.625187677290185   1.0000000
N2   N   0.611111974641121   0.888890687216780   0.625288746959075   1.0000000
N2   N   0.444444444444443   0.388888888888886   0.615754649257690   1.0000000
N2   N   0.944443471432975   0.888889861900354   0.625196580860797   1.0000000
N2   N   0.111109540464459   0.888882070698458   0.124812322709934   1.0000000
N2   N   0.777795409112042   0.388890642628736   0.624971412101649   1.0000000
N2   N   0.444446390467341   0.888889861900354   0.124803419139125   1.0000000
N2   N   0.277764350640569   0.388890817654595   0.127402028603509   1.0000000
N2   N   0.277773457778131   0.555559875555226   0.125498071452539   1.0000000
N2   N   0.611126467014071   0.388890817654595   0.127402028603516   1.0000000
N2   N   0.777778712575742   0.888890687216780   0.124711253040883   1.0000000
N2   N   0.944443471432975   0.388886942865988   0.124803419139125   1.0000000
N2   N   0.111109540464459   0.555560803099073   0.625187677290185   1.0000000
N2   N   0.277773457778131   0.055546915556169   0.624501928547533   1.0000000
N2   N   0.777786417777074   0.555559875555226   0.624501928547533   1.0000000
N2   N   0.611111974641121   0.055554620757714   0.625288746959075   1.0000000
N2   N   0.944442646116549   0.055554620757714   0.625288746959075   1.0000000
N2   N   0.054560175852306   0.110409821036674   0.375000000000000   1.0000000
N2   N   0.556125712504031   0.612251425007792   0.375000000000000   1.0000000
N2   N   0.387871791815305   0.105629347405916   0.375000000000000   1.0000000
N2   N   0.890790686432073   0.612062009882715   0.375000000000000   1.0000000
N2   N   0.722400016189318   0.110933317144088   0.375000000000000   1.0000000
N2   N   0.055552508909690   0.777780824423531   0.875000000000000   1.0000000
N2   N   0.388893048443635   0.777777963950603   0.875000000000000   1.0000000
N2   N   0.222234956485425   0.277784144909338   0.875000000000000   1.0000000
N2   N   0.722215571269199   0.777774305242445   0.875000000000000   1.0000000
N2   N   0.555549188423906   0.277784144909338   0.875000000000000   1.0000000
N2   N   0.888888891374340   0.277777782748633   0.875000000000000   1.0000000
N2   N   0.221866158144890   0.777599745738982   0.375000000000000   1.0000000
N2   N   0.054560175852306   0.277483688148967   0.375000000000000   1.0000000
N2   N   0.379283710219396   0.258567420438713   0.375000000000000   1.0000000
N2   N   0.555849645184184   0.778773157481122   0.375000000000000   1.0000000
N2   N   0.890410330079027   0.779023442436680   0.375000000000000   1.0000000
N2   N   0.722923512296575   0.277483688148967   0.375000000000000   1.0000000
N2   N   0.055555369382767   0.944448417826352   0.875000000000000   1.0000000
N2   N   0.388893048443635   0.944448417826352   0.875000000000000   1.0000000
N2   N   0.222231649806446   0.444438677170851   0.875000000000000   1.0000000
N2   N   0.555536136079376   0.444434734706356   0.875000000000000   1.0000000
N2   N   0.722220966176308   0.944441932352643   0.875000000000000   1.0000000
N2   N   0.888884915506977   0.444440284889693   0.875000000000000   1.0000000
N2   N   0.054309890896557   0.444720220975564   0.375000000000000   1.0000000
N2   N   0.221271323450586   0.942542646901255   0.375000000000000   1.0000000
N2   N   0.555820800240515   0.944577066787117   0.375000000000000   1.0000000
N2   N   0.379283710219396   0.454049623113933   0.375000000000000   1.0000000
N2   N   0.888756266546211   0.944577066787117   0.375000000000000   1.0000000
N2   N   0.727703985927413   0.445461541518024   0.375000000000000   1.0000000
N2   N   0.222226578580204   0.611106754753018   0.875000000000000   1.0000000
N2   N   0.055559028090834   0.111117762064187   0.875000000000000   1.0000000
N2   N   0.555549188423927   0.611098376847996   0.875000000000000   1.0000000
N2   N   0.388894656162477   0.111126305968909   0.875000000000000   1.0000000
N2   N   0.888880176172799   0.611106754753018   0.875000000000000   1.0000000
N2   N   0.055733587594205   0.611467175188360   0.375000000000000   1.0000000
N2   N   0.722220966176308   0.111112367156978   0.875000000000000   1.0000000
N2   N   0.217757555590647   0.105629347405916   0.375000000000000   1.0000000
N2   N   0.387871791815305   0.615575777742477   0.375000000000000   1.0000000
N2   N   0.727703985927413   0.615575777742477   0.375000000000000   1.0000000
N2   N   0.555849645184184   0.110409821036674   0.375000000000000   1.0000000
N2   N   0.388894656162477   0.611101683526869   0.875000000000000   1.0000000
N2   N   0.888533300954898   0.110933317144088   0.375000000000000   1.0000000
N2   N   0.222228315513920   0.777780824423531   0.875000000000000   1.0000000
N2   N   0.055559028090834   0.277774599360026   0.875000000000000   1.0000000
N2   N   0.388898598626973   0.277797197254011   0.875000000000000   1.0000000
N2   N   0.555558733973381   0.777774305242445   0.875000000000000   1.0000000
N2   N   0.888884915506977   0.777777963950603   0.875000000000000   1.0000000
N2   N   0.722215571269199   0.277774599360026   0.875000000000000   1.0000000
N2   N   0.055733587594205   0.777599745738982   0.375000000000000   1.0000000
N2   N   0.388613112357765   0.779023442436680   0.375000000000000   1.0000000
N2   N   0.221081908325580   0.277207620829440   0.375000000000000   1.0000000
N2   N   0.722923512296575   0.778773157481122   0.375000000000000   1.0000000
N2   N   0.556125712504031   0.277207620829440   0.375000000000000   1.0000000
N2   N   0.888756266546211   0.277512533092968   0.375000000000000   1.0000000
N2   N   0.055555369382767   0.444440284889693   0.875000000000000   1.0000000
N2   N   0.222226578580204   0.944453157160530   0.875000000000000   1.0000000
N2   N   0.555555550584828   0.944444441958988   0.875000000000000   1.0000000
N2   N   0.388898598626973   0.444434734706356   0.875000000000000   1.0000000
N2   N   0.888888891374340   0.944444441958988   0.875000000000000   1.0000000
N2   N   0.054309890896557   0.942923003254302   0.375000000000000   1.0000000
N2   N   0.722207027364341   0.444438677170851   0.875000000000000   1.0000000
N2   N   0.388613112357765   0.942923003254302   0.375000000000000   1.0000000
N2   N   0.217757555590647   0.445461541518024   0.375000000000000   1.0000000
N2   N   0.221271323450586   0.612062009882715   0.375000000000000   1.0000000
N2   N   0.574765912894537   0.454049623113933   0.375000000000000   1.0000000
N2   N   0.722400016189318   0.944800032378431   0.375000000000000   1.0000000
N2   N   0.890410330079027   0.444720220975564   0.375000000000000   1.0000000
N2   N   0.055552508909690   0.611105017819495   0.875000000000000   1.0000000
N2   N   0.222231649806446   0.111126305968909   0.875000000000000   1.0000000
N2   N   0.722207027364341   0.611101683526869   0.875000000000000   1.0000000
N2   N   0.555558733973374   0.111117762064187   0.875000000000000   1.0000000
N2   N   0.888891400980686   0.111112367156978   0.875000000000000   1.0000000
B2   B   0.107779331385498   0.052549401914627   0.375000000000000   1.0000000
B2   B   0.619095094629121   0.563543765241977   0.375000000000000   1.0000000
B2   B   0.444770070529151   0.052549401914627   0.375000000000000   1.0000000
B2   B   0.945367233296858   0.555861814457115   0.375000000000000   1.0000000
B2   B   0.777777777777779   0.055555555555557   0.375000000000000   1.0000000
B2   B   0.111111111111114   0.722222222222221   0.875000000000000   1.0000000
B2   B   0.444453777311378   0.722249798982688   0.875000000000000   1.0000000
B2   B   0.277731051394293   0.222195350087527   0.875000000000000   1.0000000
B2   B   0.777796021671410   0.722249798982688   0.875000000000000   1.0000000
B2   B   0.611128054275260   0.222205279058296   0.875000000000000   1.0000000
B2   B   0.944420926749649   0.222213734981903   0.875000000000000   1.0000000
B2   B   0.277471518876235   0.722838752173406   0.375000000000000   1.0000000
B2   B   0.109376707038995   0.221355020186158   0.375000000000000   1.0000000
B2   B   0.444448670613142   0.214238238704380   0.375000000000000   1.0000000
B2   B   0.611978313147284   0.723956626294343   0.375000000000000   1.0000000
B2   B   0.945367233296965   0.722838752173406   0.375000000000000   1.0000000
B2   B   0.778047550709094   0.221731878178155   0.375000000000000   1.0000000
B2   B   0.111112812992163   0.888886529082784   0.875000000000000   1.0000000
B2   B   0.444460025861851   0.888896679597714   0.875000000000000   1.0000000
B2   B   0.277731051394293   0.388869034640052   0.875000000000000   1.0000000
B2   B   0.611137983245836   0.388869034640052   0.875000000000000   1.0000000
B2   B   0.777792808232042   0.888912406583680   0.875000000000000   1.0000000
B2   B   0.944436653735615   0.388873307471478   0.875000000000000   1.0000000
B2   B   0.107779331385498   0.388563262804178   0.375000000000000   1.0000000
B2   B   0.277471518876235   0.887966100036470   0.375000000000000   1.0000000
B2   B   0.611601455155117   0.889649005864288   0.375000000000000   1.0000000
B2   B   0.944238173380802   0.889095159952527   0.375000000000000   1.0000000
B2   B   0.780783931418657   0.388563262804178   0.375000000000000   1.0000000
B2   B   0.277762046747525   0.555571286585583   0.875000000000000   1.0000000
B2   B   0.111083534350547   0.055537311661911   0.875000000000000   1.0000000
B2   B   0.611137983245836   0.555602281938936   0.875000000000000   1.0000000
B2   B   0.444453777311378   0.055537311661918   0.875000000000000   1.0000000
B2   B   0.944446804250545   0.555559617242722   0.875000000000000   1.0000000
B2   B   0.110494581160215   0.555861814457115   0.375000000000000   1.0000000
B2   B   0.777777777777779   0.055555555555557   0.875000000000000   1.0000000
B2   B   0.276133502455310   0.052267004910743   0.375000000000000   1.0000000
B2   B   0.444448670613142   0.563543765241977   0.375000000000000   1.0000000
B2   B   0.781066328422722   0.557199830877804   0.375000000000000   1.0000000
B2   B   0.611601455155117   0.055285782624314   0.375000000000000   1.0000000
B2   B   0.444464298693277   0.555602281938936   0.875000000000000   1.0000000
B2   B   0.943684327469041   0.055285782624314   0.375000000000000   1.0000000
B2   B   0.277773716090514   0.722220520341065   0.875000000000000   1.0000000
B2   B   0.111077224783285   0.222205279058296   0.875000000000000   1.0000000
B2   B   0.444464298693277   0.222195350087527   0.875000000000000   1.0000000
B2   B   0.611128054275260   0.722256108550156   0.875000000000000   1.0000000
B2   B   0.944446804250566   0.722220520341065   0.875000000000000   1.0000000
B2   B   0.777792808232042   0.222213734981903   0.875000000000000   1.0000000
B2   B   0.111111111111114   0.722222222222221   0.375000000000000   1.0000000
B2   B   0.444770070529151   0.725554001948038   0.375000000000000   1.0000000
B2   B   0.269789568091195   0.214238238704380   0.375000000000000   1.0000000
B2   B   0.780783931418657   0.725554001948038   0.375000000000000   1.0000000
B2   B   0.611978313147284   0.221355020186158   0.375000000000000   1.0000000
B2   B   0.943684327469041   0.221731878178155   0.375000000000000   1.0000000
B2   B   0.111083534350547   0.388879556021950   0.875000000000000   1.0000000
B2   B   0.277773716090514   0.888886529082784   0.875000000000000   1.0000000
B2   B   0.611119598351410   0.888912406583680   0.875000000000000   1.0000000
B2   B   0.444444444444443   0.388888888888886   0.875000000000000   1.0000000
B2   B   0.944436653735615   0.888896679597714   0.875000000000000   1.0000000
B2   B   0.110494581160215   0.887966100036364   0.375000000000000   1.0000000
B2   B   0.777796021671410   0.388879556021950   0.875000000000000   1.0000000
B2   B   0.444856986571775   0.889095159952527   0.375000000000000   1.0000000
B2   B   0.269789568091195   0.388884662720187   0.375000000000000   1.0000000
B2   B   0.276133502455310   0.557199830877804   0.375000000000000   1.0000000
B2   B   0.619095094629120   0.388884662720187   0.375000000000000   1.0000000
B2   B   0.778047550709094   0.889649005864288   0.375000000000000   1.0000000
B2   B   0.944238173380802   0.388476346761554   0.375000000000000   1.0000000
B2   B   0.111112812992163   0.555559617242722   0.875000000000000   1.0000000
B2   B   0.277762046747525   0.055524093495277   0.875000000000000   1.0000000
B2   B   0.777809239838286   0.555571286585583   0.875000000000000   1.0000000
B2   B   0.611119598351410   0.055540525101195   0.875000000000000   1.0000000
B2   B   0.944420926749649   0.055540525101195   0.875000000000000   1.0000000
B2   B   0.055486446131519   0.111029387742008   0.124960723332019   1.0000000
B2   B   0.555650013766683   0.611300027533204   0.126568037422157   1.0000000
B2   B   0.388840354599029   0.110907563010255   0.125687862075828   1.0000000
B2   B   0.888983459169259   0.611158396251450   0.124925193133165   1.0000000
B2   B   0.722245519369681   0.111087813963734   0.124596423149351   1.0000000
B2   B   0.055576285183317   0.777757048150097   0.625353545291552   1.0000000
B2   B   0.388876831748442   0.777804348052978   0.625203141643659   1.0000000
B2   B   0.222033305800138   0.277683319566730   0.623431962577771   1.0000000
B2   B   0.722303945591159   0.777846887201624   0.625039276667946   1.0000000
B2   B   0.555650013766683   0.277683319566730   0.623431962577785   1.0000000
B2   B   0.888888344052671   0.277776688105315   0.625297114517482   1.0000000
B2   B   0.222180762966709   0.777757048150097   0.124646454708149   1.0000000
B2   B   0.055486446131519   0.277790391722840   0.124960723332012   1.0000000
B2   B   0.388689471629887   0.277378943259774   0.129077055499895   1.0000000
B2   B   0.555542941610501   0.777846887201624   0.124960723332012   1.0000000
B2   B   0.888927516304320   0.777804348052978   0.124796858356382   1.0000000
B2   B   0.722303945591159   0.277790391722840   0.124960723332019   1.0000000
B2   B   0.055528985280416   0.944405817029001   0.625203141643659   1.0000000
B2   B   0.388876831748442   0.944405817029008   0.625203141643659   1.0000000
B2   B   0.222067208411262   0.444492978734300   0.624312137924108   1.0000000
B2   B   0.555954390073611   0.444643861703441   0.620922944500312   1.0000000
B2   B   0.722245519369681   0.944491038739247   0.625403576850522   1.0000000
B2   B   0.888927516304327   0.444456501584886   0.625203141643659   1.0000000
B2   B   0.055528985280416   0.444456501584886   0.124796858356382   1.0000000
B2   B   0.222174937082056   0.944349874164070   0.124925193133165   1.0000000
B2   B   0.555556645228192   0.944444989280658   0.124702885482368   1.0000000
B2   B   0.388689471629859   0.444643861703470   0.129077055499895   1.0000000
B2   B   0.888888344052671   0.944444989280658   0.124702885482368   1.0000000
B2   B   0.722425770323123   0.444492978734300   0.125687862075828   1.0000000
B2   B   0.222174937082056   0.611158396251450   0.625074806866785   1.0000000
B2   B   0.055486446131519   0.111029387742008   0.625039276667953   1.0000000
B2   B   0.555650013766683   0.611300027533204   0.623431962577785   1.0000000
B2   B   0.388840354599029   0.110907563010255   0.624312137924108   1.0000000
B2   B   0.888983459169259   0.611158396251450   0.625074806866785   1.0000000
B2   B   0.055576285183317   0.611152570366740   0.124646454708164   1.0000000
B2   B   0.722245519369681   0.111087813963734   0.625403576850522   1.0000000
B2   B   0.222067208411255   0.110907563010255   0.125687862075828   1.0000000
B2   B   0.388840354599029   0.611266124922153   0.125687862075828   1.0000000
B2   B   0.722425770323123   0.611266124922153   0.125687862075828   1.0000000
B2   B   0.555542941610501   0.111029387742008   0.124960723332019   1.0000000
B2   B   0.388840354599029   0.611266124922153   0.624312137924108   1.0000000
B2   B   0.888842294594082   0.111087813963734   0.124596423149351   1.0000000
B2   B   0.222180762966709   0.777757048150097   0.625353545291545   1.0000000
B2   B   0.055486446131519   0.277790391722840   0.625039276667946   1.0000000
B2   B   0.388689471629859   0.277378943259774   0.620922944500312   1.0000000
B2   B   0.555542941610501   0.777846887201624   0.625039276667946   1.0000000
B2   B   0.888927516304320   0.777804348052978   0.625203141643659   1.0000000
B2   B   0.722303945591159   0.277790391722840   0.625039276667953   1.0000000
B2   B   0.055576285183317   0.777757048150097   0.124646454708149   1.0000000
B2   B   0.388876831748442   0.777804348052978   0.124796858356382   1.0000000
B2   B   0.222033305800138   0.277683319566730   0.126568037422157   1.0000000
B2   B   0.722303945591159   0.777846887201624   0.124960723332019   1.0000000
B2   B   0.555650013766683   0.277683319566730   0.126568037422157   1.0000000
B2   B   0.888888344052671   0.277776688105315   0.124702885482368   1.0000000
B2   B   0.055528985280416   0.444456501584886   0.625203141643659   1.0000000
B2   B   0.222174937082056   0.944349874164070   0.625074806866785   1.0000000
B2   B   0.555556645228192   0.944444989280658   0.625297114517482   1.0000000
B2   B   0.388689471629887   0.444643861703441   0.620922944500312   1.0000000
B2   B   0.888888344052671   0.944444989280658   0.625297114517482   1.0000000
B2   B   0.055528985280416   0.944405817029001   0.124796858356382   1.0000000
B2   B   0.722425770323123   0.444492978734300   0.624312137924108   1.0000000
B2   B   0.388876831748442   0.944405817029001   0.124796858356382   1.0000000
B2   B   0.222067208411255   0.444492978734300   0.125687862075828   1.0000000
B2   B   0.222174937082056   0.611158396251450   0.124925193133165   1.0000000
B2   B   0.555954390073611   0.444643861703470   0.129077055499895   1.0000000
B2   B   0.722245519369681   0.944491038739247   0.124596423149351   1.0000000
B2   B   0.888927516304327   0.444456501584886   0.124796858356382   1.0000000
B2   B   0.055576285183317   0.611152570366740   0.625353545291552   1.0000000
B2   B   0.222067208411262   0.110907563010255   0.624312137924108   1.0000000
B2   B   0.722425770323123   0.611266124922153   0.624312137924108   1.0000000
B2   B   0.555542941610501   0.111029387742008   0.625039276667946   1.0000000
B2   B   0.888842294594082   0.111087813963734   0.625403576850522   1.0000000


