data_1
_audit_creation_method   'vasp2cif'
_cell_length_a    17.52789999999977
_cell_length_b    17.52789999999977
_cell_length_c    15.0
_cell_angle_alpha    90.0
_cell_angle_beta    90.0
_cell_angle_gamma    119.99999999999916

_symmetry_space_group_name_H-M    'P 1'
loop_
_atom_site_label
_atom_site_type_symbol
_atom_site_fract_x
_atom_site_fract_y
_atom_site_fract_z
_atom_site_occupancy
Se2   Se   0.508543004656572   0.491458397260414   0.111239325961338   1.0000000
B2   B   0.906012806018418   0.953438157921654   0.111016174100922   1.0000000
B2   B   0.904480960946027   0.095521060250010   0.111014516928300   1.0000000
B2   B   0.904055470108871   0.238208225063897   0.110977082524347   1.0000000
B2   B   0.904338918891359   0.381056894730234   0.110930838517514   1.0000000
B2   B   0.905780864960925   0.524124386309429   0.111062506944227   1.0000000
B2   B   0.907315745195624   0.667581690656061   0.111166789014763   1.0000000
B2   B   0.907856251957068   0.811449126354266   0.111078040828824   1.0000000
B2   B   0.048162712582920   0.951839308613121   0.111020222552829   1.0000000
B2   B   0.046563863274329   0.093989215177568   0.111016174100922   1.0000000
B2   B   0.046136937733892   0.237198969461395   0.110967946573439   1.0000000
B2   B   0.046599213059245   0.380459074394675   0.110983460727567   1.0000000
B2   B   0.047797586345941   0.523542771193433   0.111030057022554   1.0000000
B2   B   0.048926365978152   0.666489660678576   0.111133944075617   1.0000000
B2   B   0.049039994980095   0.809373468411196   0.111112639035572   1.0000000
B2   B   0.190628552784823   0.950962026215888   0.111112639035572   1.0000000
B2   B   0.188552894841725   0.092145769238946   0.111078040828824   1.0000000
B2   B   0.186892277674984   0.234293048297331   0.110972160153599   1.0000000
B2   B   0.188104111126568   0.379154403765606   0.110997105909467   1.0000000
B2   B   0.189849933763116   0.523035690874938   0.111082669267356   1.0000000
B2   B   0.191294557174334   0.666037869064489   0.111106874010084   1.0000000
B2   B   0.191299383423216   0.808702637772776   0.111082220067682   1.0000000
B2   B   0.333512360518416   0.951075655217839   0.111133944075617   1.0000000
B2   B   0.332420330540937   0.092686276000375   0.111166789014768   1.0000000
B2   B   0.328351879919059   0.231434608299258   0.111022214534782   1.0000000
B2   B   0.326810034620156   0.373760345946044   0.110921788638999   1.0000000
B2   B   0.332080551845368   0.522649602552401   0.111027305864798   1.0000000
B2   B   0.334152762614354   0.665849258582656   0.111139161040882   1.0000000
B2   B   0.333964152132492   0.808707464021676   0.111106874010084   1.0000000
B2   B   0.476459250003546   0.952204434850054   0.111030057022554   1.0000000
B2   B   0.475877634887582   0.094221156235083   0.111062506944227   1.0000000
B2   B   0.474747967739462   0.235501932400477   0.111048142485731   1.0000000
B2   B   0.466673685401197   0.368959388167768   0.111005211451322   1.0000000
B2   B   0.477352418644570   0.667921469351675   0.111027305864798   1.0000000
B2   B   0.476966330322059   0.810152087432907   0.111082669267356   1.0000000
B2   B   0.619542946801348   0.953402808136750   0.110983460727567   1.0000000
B2   B   0.618945126465762   0.095663102304634   0.110930838517514   1.0000000
B2   B   0.618588897251779   0.238318878072755   0.110958137786459   1.0000000
B2   B   0.618389668101882   0.381612353094118   0.110973940336698   1.0000000
B2   B   0.631042633028258   0.533328335795782   0.111005211451322   1.0000000
B2   B   0.626241675249934   0.673191986576793   0.110921788638999   1.0000000
B2   B   0.620847617430384   0.811897910069454   0.110997105909467   1.0000000
B2   B   0.762803051734608   0.953865083462136   0.110967946573439   1.0000000
B2   B   0.761793796132121   0.095946551087140   0.110977082524347   1.0000000
B2   B   0.761481161446371   0.238520859749612   0.110943492557531   1.0000000
B2   B   0.761683143123257   0.381413123944205   0.110958137786459   1.0000000
B2   B   0.764500088795512   0.525254053457552   0.111048142485731   1.0000000
B2   B   0.768567412896707   0.671650141277945   0.111022214534782   1.0000000
B2   B   0.765708972898673   0.813109743521034   0.110972160153599   1.0000000
N2   N   0.953810390452545   0.905807483025224   0.111008824542425   1.0000000
N2   N   0.952137934919660   0.047863466998364   0.111012595116144   1.0000000
N2   N   0.951357507402058   0.190370872353696   0.110977159176527   1.0000000
N2   N   0.951515947469482   0.333237604528909   0.110929081770507   1.0000000
N2   N   0.952600984176301   0.476153986135579   0.110963147339332   1.0000000
N2   N   0.953874142182114   0.619225970015435   0.111140327169298   1.0000000
N2   N   0.954315153053844   0.762592392329979   0.111127462075300   1.0000000
N2   N   0.095824105636842   0.904177296281198   0.111036795442196   1.0000000
N2   N   0.094193918892718   0.046191011465452   0.111008824542425   1.0000000
N2   N   0.092703029917066   0.188462809634531   0.110967351314314   1.0000000
N2   N   0.093283000366125   0.332188408001021   0.110961637877806   1.0000000
N2   N   0.094683177140487   0.475597523543554   0.111011802631765   1.0000000
N2   N   0.096041929142417   0.618652060485914   0.111078617332243   1.0000000
N2   N   0.096307686081870   0.761507337389147   0.111091989880946   1.0000000
N2   N   0.238494064528810   0.903693715836114   0.111091989880946   1.0000000
N2   N   0.237409009588024   0.045686248864159   0.111127462075300   1.0000000
N2   N   0.234312344406112   0.186200232179621   0.111006526438087   1.0000000
N2   N   0.232609511252527   0.328523367034570   0.110934926605016   1.0000000
N2   N   0.236060049196927   0.474579097937643   0.111038095746490   1.0000000
N2   N   0.238633769852730   0.618339700092717   0.111105156909737   1.0000000
N2   N   0.238825710983176   0.761175690934829   0.111080485097274   1.0000000
N2   N   0.381349341432103   0.903959472775625   0.111078617332243   1.0000000
N2   N   0.380775431902553   0.046127259735887   0.111140327169298   1.0000000
N2   N   0.379365810784565   0.187410125213426   0.111099522245016   1.0000000
N2   N   0.373537808661702   0.324868312272885   0.110930777985579   1.0000000
N2   N   0.366888103782090   0.465839462184351   0.110841981218570   1.0000000
N2   N   0.381778428467057   0.618222973450949   0.111086605378973   1.0000000
N2   N   0.381661701825253   0.761367632065283   0.111105156909737   1.0000000
N2   N   0.524403878373397   0.905318224777533   0.111011802631765   1.0000000
N2   N   0.523847415781419   0.047400417741694   0.110963147339332   1.0000000
N2   N   0.523311725822420   0.189484175546869   0.111012455703990   1.0000000
N2   N   0.522188863092260   0.331147144920515   0.110972649523734   1.0000000
N2   N   0.534161939732656   0.633113298135911   0.110841981218570   1.0000000
N2   N   0.525422303979389   0.763941352721082   0.111038095746490   1.0000000
N2   N   0.667812993916024   0.906718401551861   0.110961637877806   1.0000000
N2   N   0.666763797388061   0.048485454448547   0.110929081770507   1.0000000
N2   N   0.666307218104929   0.190989654777381   0.110907104652509   1.0000000
N2   N   0.666011428183724   0.333989973733263   0.110938269039540   1.0000000
N2   N   0.668854256996522   0.477812538824738   0.110972649523734   1.0000000
N2   N   0.675133089644100   0.626463593256331   0.110930777985579   1.0000000
N2   N   0.671478034882393   0.767391890665456   0.110934926605016   1.0000000
N2   N   0.811538592283520   0.907298372000933   0.110967351314314   1.0000000
N2   N   0.809630529564291   0.048643894516016   0.110977159176527   1.0000000
N2   N   0.809017214690050   0.190984187227970   0.110952841588349   1.0000000
N2   N   0.809011747140650   0.333694183812047   0.110907104652509   1.0000000
N2   N   0.810517226371146   0.476689676094565   0.111012455703990   1.0000000
N2   N   0.812591276704614   0.620635591133394   0.111099522245016   1.0000000
N2   N   0.813801169738402   0.765689057511919   0.111006526438087   1.0000000


