data_1
_audit_creation_method   'vasp2cif'
_cell_length_a    17.52789999999977
_cell_length_b    17.52789999999977
_cell_length_c    15.0
_cell_angle_alpha    90.0
_cell_angle_beta    90.0
_cell_angle_gamma    119.99999999999916

_symmetry_space_group_name_H-M    'P 1'
loop_
_atom_site_label
_atom_site_type_symbol
_atom_site_fract_x
_atom_site_fract_y
_atom_site_fract_z
_atom_site_occupancy
B2   B   0.905067477030455   0.952763363961442   0.111031039859961   1.0000000
B2   B   0.904897065672990   0.095104955523009   0.111050927692923   1.0000000
B2   B   0.904934285788356   0.237666974534337   0.111049734682159   1.0000000
B2   B   0.905553115576572   0.380664114665730   0.111022843008965   1.0000000
B2   B   0.907001138867588   0.524119241730956   0.111038453269773   1.0000000
B2   B   0.905082394718195   0.667169809805792   0.111084866631853   1.0000000
B2   B   0.904075049264725   0.809244746273201   0.111068334310660   1.0000000
B2   B   0.047340369885627   0.952661651310381   0.110986635481970   1.0000000
B2   B   0.047238657234564   0.094934544165538   0.111031039859961   1.0000000
B2   B   0.046845575548110   0.237595309675181   0.111033711985968   1.0000000
B2   B   0.046536975529982   0.380923285585380   0.111024270590962   1.0000000
B2   B   0.046791087315889   0.524549813712886   0.111012181874892   1.0000000
B2   B   0.047221053770042   0.667569250102845   0.111035064791555   1.0000000
B2   B   0.047150885973819   0.810122990666011   0.111008167680828   1.0000000
B2   B   0.189879030529983   0.952851135222185   0.111008167680828   1.0000000
B2   B   0.190757274922808   0.095926971931275   0.111068334310660   1.0000000
B2   B   0.188805616224719   0.236921806605520   0.111077540688339   1.0000000
B2   B   0.187464675771447   0.380730829446940   0.111025236799704   1.0000000
B2   B   0.186244609713932   0.525040803761157   0.111039634951904   1.0000000
B2   B   0.189004000798545   0.668114667052237   0.111083716249095   1.0000000
B2   B   0.189507534542932   0.810494486653067   0.111054340498882   1.0000000
B2   B   0.332432771094146   0.952780967425964   0.111035064791555   1.0000000
B2   B   0.332832211391205   0.094919626477801   0.111084866631853   1.0000000
B2   B   0.334696496897363   0.239414776278318   0.111106957546160   1.0000000
B2   B   0.328128568591037   0.379403599205499   0.110937091043912   1.0000000
B2   B   0.324079224710306   0.525664519165685   0.110981619841995   1.0000000
B2   B   0.330967172704207   0.669034848492789   0.111078729367973   1.0000000
B2   B   0.331887354144757   0.810998020397461   0.111083716249095   1.0000000
B2   B   0.475452207484108   0.953210933880110   0.111012181874892   1.0000000
B2   B   0.475882779466038   0.093000882328408   0.111038453269773   1.0000000
B2   B   0.476375527063165   0.231750057602026   0.111066993661324   1.0000000
B2   B   0.480505559404705   0.371287138735999   0.110840122020820   1.0000000
B2   B   0.474337502031310   0.675922796486686   0.110981619841995   1.0000000
B2   B   0.474961217435837   0.813757411482066   0.111039634951904   1.0000000
B2   B   0.619078735610622   0.953465045666014   0.111024270590962   1.0000000
B2   B   0.619337906530280   0.094448905619422   0.111022843008965   1.0000000
B2   B   0.620226850858526   0.235496212187529   0.111005153609866   1.0000000
B2   B   0.622888230635996   0.377113790560008   0.110992515456761   1.0000000
B2   B   0.628714882460006   0.519496461792295   0.110840122020820   1.0000000
B2   B   0.620598421990511   0.671873452605962   0.110937091043912   1.0000000
B2   B   0.619271191749063   0.812537345424554   0.111025236799704   1.0000000
B2   B   0.762406711520820   0.953156445647890   0.111033711985968   1.0000000
B2   B   0.762335046661666   0.095067735407644   0.111049734682159   1.0000000
B2   B   0.762861075115430   0.237140946080577   0.111024233038006   1.0000000
B2   B   0.764505809008477   0.379775170337482   0.111005153609866   1.0000000
B2   B   0.768251963593977   0.523626494133836   0.111066993661324   1.0000000
B2   B   0.760587244917691   0.665305524299637   0.111106957546160   1.0000000
B2   B   0.763080214590485   0.811196404971286   0.111077540688339   1.0000000
N2   N   0.952033960803484   0.904667123806298   0.111007369352950   1.0000000
N2   N   0.952409687954071   0.047591713963938   0.111014507838407   1.0000000
N2   N   0.952124016227458   0.190002575001350   0.111030165327783   1.0000000
N2   N   0.952091070475636   0.332699793683301   0.111015577848920   1.0000000
N2   N   0.952796067205695   0.475909419886409   0.110991774180428   1.0000000
N2   N   0.952481054815332   0.619388181004891   0.111054274304211   1.0000000
N2   N   0.952070440904694   0.762199578463056   0.111034573786553   1.0000000
N2   N   0.094799662397676   0.905201739520323   0.110963017176194   1.0000000
N2   N   0.095334278111698   0.047967441114520   0.111007369352950   1.0000000
N2   N   0.094152923485165   0.189679612348768   0.111035587035074   1.0000000
N2   N   0.093154016433875   0.332601875446313   0.111013112451382   1.0000000
N2   N   0.092435497774014   0.476201896037747   0.111014728894941   1.0000000
N2   N   0.094156646327589   0.619809608656134   0.111018584143596   1.0000000
N2   N   0.094533990047794   0.762663537649551   0.111014617774643   1.0000000
N2   N   0.237337864268456   0.905467411870201   0.111014617774643   1.0000000
N2   N   0.237801823454954   0.047930961013315   0.111034573786553   1.0000000
N2   N   0.238902659197345   0.191444953233058   0.111106997083593   1.0000000
N2   N   0.233969428908619   0.331113266135248   0.111017423713490   1.0000000
N2   N   0.230717399285963   0.476208497707227   0.110989803789022   1.0000000
N2   N   0.235719081332225   0.620475518262768   0.111060730051354   1.0000000
N2   N   0.236823165250352   0.763178236667651   0.111088311180436   1.0000000
N2   N   0.380191793261875   0.905844755590414   0.111018584143596   1.0000000
N2   N   0.380613220913105   0.047520347102674   0.111054274304211   1.0000000
N2   N   0.381185658876833   0.189876578685955   0.111083598545621   1.0000000
N2   N   0.384211801445887   0.336315297899344   0.110983105315872   1.0000000
N2   N   0.360230123452741   0.471252188263584   0.110856604036816   1.0000000
N2   N   0.378068895608931   0.621932506309070   0.111049974623986   1.0000000
N2   N   0.379525883655239   0.764282320585784   0.111060730051354   1.0000000
N2   N   0.523799505879242   0.907565904143984   0.111014728894941   1.0000000
N2   N   0.524091982030592   0.047205334712310   0.110991774180428   1.0000000
N2   N   0.524875645820103   0.186735716583036   0.111011719245343   1.0000000
N2   N   0.526490274933468   0.324338042477467   0.111009263339420   1.0000000
N2   N   0.528749213653414   0.639771278465261   0.110856604036816   1.0000000
N2   N   0.523792904209769   0.769284002632048   0.110989803789022   1.0000000
N2   N   0.667399526470683   0.906847385484128   0.111013112451382   1.0000000
N2   N   0.667301608233704   0.047910331442374   0.111015577848920   1.0000000
N2   N   0.667855456503410   0.189055416463007   0.111004149309866   1.0000000
N2   N   0.669565612395898   0.330435789521090   0.110966413632797   1.0000000
N2   N   0.675663359439515   0.473511126983523   0.111009263339420   1.0000000
N2   N   0.663686104017654   0.615789600472113   0.110983105315872   1.0000000
N2   N   0.668888135781746   0.766031973009383   0.111017423713490   1.0000000
N2   N   0.810321789569231   0.905848478432836   0.111035587035074   1.0000000
N2   N   0.809998826916648   0.047877385690556   0.111030165327783   1.0000000
N2   N   0.810118532410257   0.189882869507739   0.111029842147585   1.0000000
N2   N   0.810945985454996   0.332145945413589   0.111004149309866   1.0000000
N2   N   0.813265685334964   0.475125756096895   0.111011719245343   1.0000000
N2   N   0.810124823232042   0.618815743041160   0.111083598545621   1.0000000
N2   N   0.808556448684941   0.761098742720661   0.111106997083593   1.0000000
O2   O   0.544153513595960   0.455847888321039   0.110439328327084   1.0000000
Se2   Se   0.476486067505077   0.523515953691920   0.111368234273845   1.0000000


