data_1
_audit_creation_method   'vasp2cif'
_cell_length_a    17.52789999999977
_cell_length_b    17.52789999999977
_cell_length_c    15.0
_cell_angle_alpha    90.0
_cell_angle_beta    90.0
_cell_angle_gamma    119.99999999999916

_symmetry_space_group_name_H-M    'P 1'
loop_
_atom_site_label
_atom_site_type_symbol
_atom_site_fract_x
_atom_site_fract_y
_atom_site_fract_z
_atom_site_occupancy
Al2   Al   0.530898024024955   0.628706017296185   0.111041395642927   1.0000000
B2   B   0.909553384213929   0.955745296543244   0.110971196273489   1.0000000
B2   B   0.904561492241727   0.095111812037029   0.111025152417611   1.0000000
B2   B   0.902958813692181   0.236916564869668   0.111055206980777   1.0000000
B2   B   0.903480221400386   0.379922327299284   0.110992364653521   1.0000000
B2   B   0.906807587702702   0.523995487863883   0.111016300715393   1.0000000
B2   B   0.912259429326826   0.669043553671246   0.111007252120720   1.0000000
B2   B   0.912950944712399   0.814166326047109   0.111005844266104   1.0000000
B2   B   0.050833445464775   0.953859747663374   0.110983342997271   1.0000000
B2   B   0.047532659652315   0.094609855375507   0.110983198958705   1.0000000
B2   B   0.044518625195651   0.235933682121730   0.110975941574241   1.0000000
B2   B   0.043824060077085   0.379065761049682   0.110955106248390   1.0000000
B2   B   0.045460252800388   0.523228040590522   0.110995911089435   1.0000000
B2   B   0.049346213131356   0.667591481168097   0.111011605156398   1.0000000
B2   B   0.051474924751235   0.811303182327780   0.111012453540442   1.0000000
B2   B   0.191905248973748   0.952625183676561   0.111036971602037   1.0000000
B2   B   0.189891020637544   0.093492517058038   0.111077001802326   1.0000000
B2   B   0.185575021395734   0.233392295307561   0.111001198515776   1.0000000
B2   B   0.183682364088654   0.377092093770431   0.110971281595131   1.0000000
B2   B   0.183644622686172   0.522254234025211   0.111002792599720   1.0000000
B2   B   0.187285940381940   0.667111951636577   0.111079029708154   1.0000000
B2   B   0.191348144018473   0.810390968758934   0.111002911457578   1.0000000
B2   B   0.333510502515623   0.952347146548959   0.111043061319193   1.0000000
B2   B   0.332965340734994   0.093527796386281   0.111141470510742   1.0000000
B2   B   0.329035650345952   0.232509264234336   0.111065728730155   1.0000000
B2   B   0.322085600057057   0.371802276224467   0.111007725526155   1.0000000
B2   B   0.320285711154713   0.519758223165202   0.111067455411799   1.0000000
B2   B   0.324181026092958   0.666898827769702   0.111085852695679   1.0000000
B2   B   0.332098756287016   0.810422297097412   0.111044352867464   1.0000000
B2   B   0.475786860845451   0.953094705476423   0.110980254315026   1.0000000
B2   B   0.475957619314928   0.093620094927623   0.111072464777177   1.0000000
B2   B   0.475204894194611   0.232872898048248   0.111048128976766   1.0000000
B2   B   0.467590385112175   0.362988648914516   0.111022041352971   1.0000000
B2   B   0.448090627567928   0.512712481772355   0.111285430252117   1.0000000
B2   B   0.456836682695586   0.675700375029130   0.111209084761684   1.0000000
B2   B   0.474708567718709   0.813176930741498   0.111012061246541   1.0000000
B2   B   0.619339258524521   0.952997758384371   0.110995452870836   1.0000000
B2   B   0.618842778567746   0.094727146600718   0.110990391701690   1.0000000
B2   B   0.619092535416358   0.236863994809273   0.110990987731093   1.0000000
B2   B   0.620576191918883   0.379774848456865   0.110993311771959   1.0000000
B2   B   0.640792499146824   0.535667682976692   0.111024281264690   1.0000000
B2   B   0.649434185309703   0.681121481724987   0.111214813162582   1.0000000
B2   B   0.622803921227359   0.812076469463761   0.111042503357903   1.0000000
B2   B   0.764101993440113   0.954062571914369   0.110985751220641   1.0000000
B2   B   0.761557019332662   0.095001646562226   0.111060550508321   1.0000000
B2   B   0.761247294215489   0.237208190628751   0.111036716254691   1.0000000
B2   B   0.762702979949003   0.380301642319824   0.110993949748580   1.0000000
B2   B   0.768889257197916   0.525306977350163   0.111011102983239   1.0000000
B2   B   0.779871713453954   0.674453854159803   0.111024260344088   1.0000000
B2   B   0.773440749521669   0.817870446386939   0.110985060906139   1.0000000
N2   N   0.957059013302301   0.908025282011635   0.110958284253174   1.0000000
N2   N   0.953708076517266   0.049128288881919   0.110969089642583   1.0000000
N2   N   0.950366599740886   0.189425880354269   0.111020528911186   1.0000000
N2   N   0.949721743096153   0.331688073955305   0.110980652419439   1.0000000
N2   N   0.951450873017633   0.474981746172340   0.110984970911032   1.0000000
N2   N   0.955633913187226   0.619173819026355   0.110981149001581   1.0000000
N2   N   0.957573574443768   0.764039792735697   0.110993685846866   1.0000000
N2   N   0.097729357021060   0.905899210793045   0.110987356532518   1.0000000
N2   N   0.095973884191378   0.047862595694034   0.110988012834644   1.0000000
N2   N   0.092237035487011   0.188391571488141   0.110964398943798   1.0000000
N2   N   0.090289944625822   0.330579396493029   0.110931937857193   1.0000000
N2   N   0.090406833721140   0.474142417434873   0.110939763713396   1.0000000
N2   N   0.093715636176220   0.618448709465342   0.111024428493630   1.0000000
N2   N   0.097114592661759   0.762601928656436   0.110981938239540   1.0000000
N2   N   0.239032460812924   0.905128335074616   0.110983360276463   1.0000000
N2   N   0.238525077145898   0.047178351272112   0.111097143094844   1.0000000
N2   N   0.235289997103635   0.187622298552227   0.111048374291883   1.0000000
N2   N   0.229709670835815   0.327136707443521   0.110971973386451   1.0000000
N2   N   0.228128736231268   0.472476904920216   0.110980076164336   1.0000000
N2   N   0.231350866133530   0.617764997177777   0.111059825263230   1.0000000
N2   N   0.237441821584641   0.762181034104082   0.111042030123294   1.0000000
N2   N   0.380909380141861   0.905121139093736   0.110991609560421   1.0000000
N2   N   0.381179431354314   0.047039315756795   0.111104576977183   1.0000000
N2   N   0.380081617931056   0.188313252068918   0.111089906827745   1.0000000
N2   N   0.374724417882967   0.327168498190820   0.111002254052866   1.0000000
N2   N   0.359679939700239   0.464682698126964   0.111032996227036   1.0000000
N2   N   0.367064067500692   0.616412454357239   0.111087091056945   1.0000000
N2   N   0.378749825122519   0.762458495745632   0.111044431405794   1.0000000
N2   N   0.523898502609115   0.906588585496824   0.110956707726072   1.0000000
N2   N   0.523905043852505   0.047326258247921   0.110979081376412   1.0000000
N2   N   0.523962828011347   0.188172148547612   0.111024604872592   1.0000000
N2   N   0.523846044983686   0.327716622918161   0.110987952346834   1.0000000
N2   N   0.523443629007366   0.766384063224542   0.111037615904241   1.0000000
N2   N   0.668003301450350   0.905898857863141   0.110986976778414   1.0000000
N2   N   0.666553087828429   0.047439929557484   0.110993411184786   1.0000000
N2   N   0.666364181773684   0.189718167405828   0.110980845425862   1.0000000
N2   N   0.667186399240950   0.332591946047997   0.110974795747981   1.0000000
N2   N   0.672861737986857   0.476743837901265   0.110980497842292   1.0000000
N2   N   0.688054604038252   0.627765215231950   0.111008911363818   1.0000000
N2   N   0.679847999085116   0.772209358300772   0.111013105192436   1.0000000
N2   N   0.815693641978481   0.910357357266357   0.110959263685746   1.0000000
N2   N   0.809673138788788   0.048107890874465   0.111009602560099   1.0000000
N2   N   0.808329862639135   0.189625722099668   0.111071215285686   1.0000000
N2   N   0.808735848272464   0.332214953678469   0.110990556071253   1.0000000
N2   N   0.812139651071696   0.475592209286303   0.110997347036388   1.0000000
N2   N   0.818894667249867   0.620808951513844   0.111015202333954   1.0000000
N2   N   0.819632791707541   0.768178165015127   0.111016210068874   1.0000000
S2   S   0.523385475616302   0.477145372535760   0.111096544401116   1.0000000


