data_1
_audit_creation_method   'vasp2cif'
_cell_length_a    17.52789999999977
_cell_length_b    17.52789999999977
_cell_length_c    15.0
_cell_angle_alpha    90.0
_cell_angle_beta    90.0
_cell_angle_gamma    119.99999999999916

_symmetry_space_group_name_H-M    'P 1'
loop_
_atom_site_label
_atom_site_type_symbol
_atom_site_fract_x
_atom_site_fract_y
_atom_site_fract_z
_atom_site_occupancy
B2   B   0.905457770569718   0.953340517921564   0.111025261472263   1.0000000
B2   B   0.904624901761687   0.095376927212623   0.111049084399291   1.0000000
B2   B   0.904618834115793   0.237812241438434   0.111028303460095   1.0000000
B2   B   0.905454947983616   0.380692798492546   0.111028544788718   1.0000000
B2   B   0.908437573066315   0.524411990183991   0.111034646226573   1.0000000
B2   B   0.908315919939274   0.668440679021830   0.111039833748329   1.0000000
B2   B   0.908455526049970   0.812588827086434   0.111047510440481   1.0000000
B2   B   0.047801001922854   0.952200913600831   0.111012916111252   1.0000000
B2   B   0.046661522571416   0.094544205944465   0.111028671770503   1.0000000
B2   B   0.046380272449523   0.237473888232008   0.111017315091652   1.0000000
B2   B   0.046667936118261   0.380675717929781   0.111025751978226   1.0000000
B2   B   0.047795762035132   0.524155640956848   0.111027181431066   1.0000000
B2   B   0.048839399625541   0.667333750354917   0.111034018511637   1.0000000
B2   B   0.048852905598853   0.810055858067534   0.111035245547587   1.0000000
B2   B   0.189945124087487   0.951150457042725   0.111025210693507   1.0000000
B2   B   0.187412925932102   0.091546138246855   0.111050859997976   1.0000000
B2   B   0.187715695851866   0.235966016504162   0.111045294606441   1.0000000
B2   B   0.187713722487543   0.380326637382228   0.111046369149246   1.0000000
B2   B   0.187412753788924   0.524420891872291   0.111052719475429   1.0000000
B2   B   0.189931708753932   0.667344653945790   0.111042618233759   1.0000000
B2   B   0.190476583866970   0.809525307344740   0.111023135882539   1.0000000
B2   B   0.332668090531081   0.951162328691138   0.111030882516521   1.0000000
B2   B   0.331561131180602   0.091685466779100   0.111037512315001   1.0000000
B2   B   0.325620234540067   0.229078485341292   0.111042762463853   1.0000000
B2   B   0.328901080421576   0.378742471696919   0.111018037730177   1.0000000
B2   B   0.325628930115426   0.525121024257170   0.111015256076517   1.0000000
B2   B   0.331559491585148   0.668442406070682   0.111042569529280   1.0000000
B2   B   0.332656635021444   0.810069550328874   0.111049663360544   1.0000000
B2   B   0.475845774378989   0.952205839933763   0.111022197776724   1.0000000
B2   B   0.475589576696485   0.091564037954147   0.111037474919891   1.0000000
B2   B   0.474863400557290   0.229074891214466   0.111026533260195   1.0000000
B2   B   0.461388015686797   0.351393849932400   0.111010537413411   1.0000000
B2   B   0.461400303290853   0.538601642395249   0.111009440043085   1.0000000
B2   B   0.474880811834647   0.674372781314864   0.111007777056938   1.0000000
B2   B   0.475580785464262   0.812588922759081   0.111051347720528   1.0000000
B2   B   0.619325992162486   0.953333761080232   0.111026914312697   1.0000000
B2   B   0.619308605866917   0.094546511086879   0.111032105590002   1.0000000
B2   B   0.619681606329838   0.235973254832313   0.111023825181516   1.0000000
B2   B   0.621245140171321   0.378756668232642   0.111026965376846   1.0000000
B2   B   0.648608270168541   0.538613837089749   0.111018329018643   1.0000000
B2   B   0.621259699312716   0.671100427032052   0.111014783023159   1.0000000
B2   B   0.619675010572431   0.812287763041788   0.111038261038382   1.0000000
B2   B   0.762527953442801   0.953621564392083   0.111022791407837   1.0000000
B2   B   0.762189683187730   0.095383216998533   0.111037849948751   1.0000000
B2   B   0.762522127415590   0.237479259653594   0.111013880668245   1.0000000
B2   B   0.764028436462295   0.380319979427557   0.111027976100054   1.0000000
B2   B   0.770926572469264   0.525138220755775   0.111036241285969   1.0000000
B2   B   0.770922894840257   0.674381293881259   0.111043082026990   1.0000000
B2   B   0.764035808639223   0.812286011807766   0.111041608099488   1.0000000
N2   N   0.953780413791323   0.906500045445302   0.111004517891356   1.0000000
N2   N   0.952095847467430   0.047906085695143   0.111014854950038   1.0000000
N2   N   0.951778033527623   0.190173153937333   0.111011782111693   1.0000000
N2   N   0.952093683290688   0.332756115862688   0.110997684027592   1.0000000
N2   N   0.953775434846263   0.475843972777090   0.111011205403134   1.0000000
N2   N   0.954539066063277   0.619667125012311   0.111010734421350   1.0000000
N2   N   0.954552820781534   0.763434746743433   0.111025393079185   1.0000000
N2   N   0.095363022847055   0.904638889308867   0.110990318124785   1.0000000
N2   N   0.093501789787068   0.046221342440741   0.111011530456645   1.0000000
N2   N   0.093337530891626   0.189427093049743   0.111004837138230   1.0000000
N2   N   0.093338934794184   0.332476575320699   0.111006061715121   1.0000000
N2   N   0.093501844322870   0.475838466981803   0.111019918199839   1.0000000
N2   N   0.095352963953561   0.619270770638249   0.110999178412413   1.0000000
N2   N   0.095880219386226   0.762214088023980   0.111013028419732   1.0000000
N2   N   0.237787720358317   0.904121655312019   0.111002586733641   1.0000000
N2   N   0.236567036272259   0.045448861794238   0.111015898974925   1.0000000
N2   N   0.232419059684983   0.185213537182047   0.111029786406535   1.0000000
N2   N   0.234546159505957   0.331561909823957   0.111016856910548   1.0000000
N2   N   0.232427563951483   0.475775969042986   0.111021234379592   1.0000000
N2   N   0.236561590075384   0.619675068312473   0.111014873678137   1.0000000
N2   N   0.237776982752398   0.762224248857849   0.111023953014465   1.0000000
N2   N   0.380730567476430   0.904648309396917   0.110999632936076   1.0000000
N2   N   0.380334591271412   0.045462419413961   0.111015445324025   1.0000000
N2   N   0.378520332599395   0.185630591132788   0.111012726312420   1.0000000
N2   N   0.369715118006458   0.321896130458408   0.110985634741309   1.0000000
N2   N   0.369720706429003   0.476401581990853   0.110984566082062   1.0000000
N2   N   0.378533327359203   0.621468448716089   0.110998073167948   1.0000000
N2   N   0.380326634209824   0.763440111016783   0.111028653760840   1.0000000
N2   N   0.524163205543477   0.906499819846070   0.111012209545950   1.0000000
N2   N   0.524157595460596   0.046226187253426   0.111010460021467   1.0000000
N2   N   0.524224282176816   0.185226708406465   0.111012340043473   1.0000000
N2   N   0.523574917887025   0.321894605554006   0.110985874971979   1.0000000
N2   N   0.523600462193233   0.630281070558586   0.110977358510431   1.0000000
N2   N   0.524225705467507   0.767574132399445   0.111012190931407   1.0000000
N2   N   0.667525116430175   0.906662652158601   0.111005531682856   1.0000000
N2   N   0.667245911393345   0.047908321450573   0.111009108246989   1.0000000
N2   N   0.667518802865753   0.189430885393821   0.111004738477548   1.0000000
N2   N   0.668430139698198   0.331571635312382   0.111013248623471   1.0000000
N2   N   0.678107189688279   0.476426921711533   0.110998254605122   1.0000000
N2   N   0.678105657413584   0.630286472075414   0.110987068352743   1.0000000
N2   N   0.668439922990513   0.765455325005634   0.111012566619314   1.0000000
N2   N   0.810574764743548   0.906664245329880   0.111005124195149   1.0000000
N2   N   0.809828577546120   0.048223923106762   0.111018731613423   1.0000000
N2   N   0.809825470778067   0.190177113547760   0.111010815983660   1.0000000
N2   N   0.810570607348460   0.332482607272665   0.111006102507963   1.0000000
N2   N   0.814774726305799   0.475777614568308   0.111015059443677   1.0000000
N2   N   0.814370491676453   0.621481235426728   0.111017327313298   1.0000000
N2   N   0.814787880579967   0.767582176270240   0.111024811137680   1.0000000
Sb2   Sb   0.523798591483943   0.476203373197001   0.111023012123970   1.0000000


