data_1
_audit_creation_method   'vasp2cif'
_cell_length_a    17.52789999999977
_cell_length_b    17.52789999999977
_cell_length_c    15.0
_cell_angle_alpha    90.0
_cell_angle_beta    90.0
_cell_angle_gamma    119.99999999999916

_symmetry_space_group_name_H-M    'P 1'
loop_
_atom_site_label
_atom_site_type_symbol
_atom_site_fract_x
_atom_site_fract_y
_atom_site_fract_z
_atom_site_occupancy
Al2   Al   0.534934456793640   0.465066945123390   0.110715119770472   1.0000000
B2   B   0.905850965784511   0.954018908958625   0.111065897837798   1.0000000
B2   B   0.904298441132583   0.095703580063417   0.111058767636918   1.0000000
B2   B   0.904013052343583   0.238078146158055   0.111074464959075   1.0000000
B2   B   0.904883953629290   0.381012865468292   0.111034060972001   1.0000000
B2   B   0.908292916855763   0.524784075852319   0.111075269723085   1.0000000
B2   B   0.908856411419137   0.669018985524229   0.111124148810119   1.0000000
B2   B   0.909288726020597   0.813415891204892   0.111105460353694   1.0000000
B2   B   0.047835649702677   0.952166371493218   0.111032729898355   1.0000000
B2   B   0.045983112237365   0.094151055411488   0.111065897837798   1.0000000
B2   B   0.045399448522787   0.237167238438226   0.111045053697941   1.0000000
B2   B   0.045868510042992   0.380623311816733   0.111048074047830   1.0000000
B2   B   0.047575271989218   0.524231970220230   0.111041111642635   1.0000000
B2   B   0.049073211166283   0.667420307499947   0.111064351189765   1.0000000
B2   B   0.049161392011818   0.810158239104491   0.111068956164858   1.0000000
B2   B   0.189843782091501   0.950840629184192   0.111068956164858   1.0000000
B2   B   0.186586129991186   0.090713295175412   0.111105460353694   1.0000000
B2   B   0.185804253001555   0.234391177297870   0.111090324436641   1.0000000
B2   B   0.186187507649098   0.379377457541160   0.111092907750538   1.0000000
B2   B   0.187051741790472   0.524117706267574   0.111120118879847   1.0000000
B2   B   0.190223208997371   0.667173474074156   0.111079198310596   1.0000000
B2   B   0.190639664369024   0.809362356826969   0.111028278011751   1.0000000
B2   B   0.332581713697052   0.950928810029713   0.111064351189765   1.0000000
B2   B   0.330983035672801   0.091145609776889   0.111124148810119   1.0000000
B2   B   0.323910058153806   0.227495737487435   0.111090682264996   1.0000000
B2   B   0.325179897619610   0.374721868938786   0.110907918917949   1.0000000
B2   B   0.324763994125948   0.523866040767461   0.111016037177725   1.0000000
B2   B   0.332112746745260   0.667889274451806   0.111076250814783   1.0000000
B2   B   0.332828547122813   0.809778812198610   0.111079198310596   1.0000000
B2   B   0.475770050976797   0.952426749206758   0.111041111642635   1.0000000
B2   B   0.475217945344634   0.091709104340287   0.111075269723085   1.0000000
B2   B   0.473782210836334   0.228958889787077   0.111070822595488   1.0000000
B2   B   0.457525597468298   0.351131942610110   0.110546141200342   1.0000000
B2   B   0.476135980429563   0.675238027071014   0.111016037177725   1.0000000
B2   B   0.475884314929340   0.812950279405447   0.111120118879847   1.0000000
B2   B   0.619378709379315   0.954133511153039   0.111048074047830   1.0000000
B2   B   0.618989155727717   0.095118067566723   0.111034060972001   1.0000000
B2   B   0.618965074502562   0.236487277378417   0.111028280129432   1.0000000
B2   B   0.620499469792888   0.379502551403134   0.110861458138822   1.0000000
B2   B   0.648870078585910   0.542476423728743   0.110546141200342   1.0000000
B2   B   0.625280152257155   0.674822123577385   0.110907918917949   1.0000000
B2   B   0.620624563654795   0.813814513546918   0.111092907750538   1.0000000
B2   B   0.762834782757668   0.954602572673212   0.111045053697941   1.0000000
B2   B   0.761923875037948   0.095988968852364   0.111074464959075   1.0000000
B2   B   0.761989615134005   0.238012406061986   0.111068007636115   1.0000000
B2   B   0.763514743817560   0.381036946693382   0.111028280129432   1.0000000
B2   B   0.771043131408903   0.526219810360591   0.111070822595488   1.0000000
B2   B   0.772506283708615   0.676091963043242   0.111090682264996   1.0000000
B2   B   0.765610843898146   0.814197768194459   0.111090324436641   1.0000000
N2   N   0.954122684356767   0.907069606281605   0.111027978763418   1.0000000
N2   N   0.951787352834227   0.048214049083716   0.111051624401199   1.0000000
N2   N   0.951032349041167   0.190321265592744   0.111040589324451   1.0000000
N2   N   0.951380576556874   0.332964092039994   0.111026840648320   1.0000000
N2   N   0.953519541673000   0.476119098265629   0.111018071342621   1.0000000
N2   N   0.954795261669009   0.619988548081012   0.111086354322806   1.0000000
N2   N   0.955047228455082   0.763901932861327   0.111085178463921   1.0000000
N2   N   0.095419233059817   0.904582168858260   0.111031463927957   1.0000000
N2   N   0.092931795636360   0.045878717561253   0.111027978763418   1.0000000
N2   N   0.091896947760816   0.188652368236247   0.111045439836517   1.0000000
N2   N   0.092103543098008   0.332112308141511   0.111044394396561   1.0000000
N2   N   0.093148767382760   0.475804469200396   0.111045639386863   1.0000000
N2   N   0.095573627579748   0.619303652416408   0.111038132923442   1.0000000
N2   N   0.096117582439218   0.762216476777888   0.111026562882831   1.0000000
N2   N   0.237784925140126   0.903883819478792   0.111026562882831   1.0000000
N2   N   0.236099469056652   0.044954173462966   0.111085178463921   1.0000000
N2   N   0.230881418838070   0.183955786778815   0.111141551239595   1.0000000
N2   N   0.231522623757891   0.329417016087573   0.111062118820658   1.0000000
N2   N   0.231641631016443   0.475089653387086   0.111138740827774   1.0000000
N2   N   0.236965017956361   0.619415241206177   0.111084347074916   1.0000000
N2   N   0.237985167708828   0.762016234209198   0.111043768323339   1.0000000
N2   N   0.380697749501601   0.904427774338299   0.111038132923442   1.0000000
N2   N   0.380012853837005   0.045206140249021   0.111086354322806   1.0000000
N2   N   0.377526710715382   0.184933562196329   0.111112209323950   1.0000000
N2   N   0.366758858434945   0.319922323029002   0.110833764506403   1.0000000
N2   N   0.364370370575246   0.471117504926141   0.110783843024278   1.0000000
N2   N   0.379441345362266   0.620560056555748   0.110997170412546   1.0000000
N2   N   0.380586160711869   0.763036383961648   0.111084347074916   1.0000000
N2   N   0.524196932716586   0.906852634535272   0.111045639386863   1.0000000
N2   N   0.523882303651426   0.046481860244992   0.111018071342621   1.0000000
N2   N   0.523553192602878   0.185423840886329   0.111064944129740   1.0000000
N2   N   0.521573378481311   0.321922622050731   0.110857232460226   1.0000000
N2   N   0.528883896990836   0.635631031342739   0.110783843024278   1.0000000
N2   N   0.524911748529939   0.768359770901538   0.111138740827773   1.0000000
N2   N   0.667889093775518   0.907897858819998   0.111044394396561   1.0000000
N2   N   0.667037309877031   0.048620825361082   0.111026840648320   1.0000000
N2   N   0.666978358664441   0.190059099392580   0.111032929297687   1.0000000
N2   N   0.667642483632946   0.332358918284015   0.110975975118803   1.0000000
N2   N   0.678078779866193   0.478428023435561   0.110857232460226   1.0000000
N2   N   0.680079078887976   0.633242543482977   0.110833764506403   1.0000000
N2   N   0.670584385829408   0.768478778160090   0.111062118820658   1.0000000
N2   N   0.811349033681745   0.908104454157137   0.111045439836517   1.0000000
N2   N   0.809680136325236   0.048969052876849   0.111040589324451   1.0000000
N2   N   0.809297678934529   0.190703722983503   0.111074490718430   1.0000000
N2   N   0.809942302525435   0.333023043252515   0.111032929297687   1.0000000
N2   N   0.814577561031642   0.476448209314076   0.111064944129740   1.0000000
N2   N   0.815067839721678   0.622474691202614   0.111112209323950   1.0000000
N2   N   0.816045615139240   0.769119983079924   0.111141551239595   1.0000000
P2   P   0.471323580943294   0.528678440253705   0.110172607071855   1.0000000


