data_1
_audit_creation_method   'vasp2cif'
_cell_length_a    14.93631414619966
_cell_length_b    14.936314146199727
_cell_length_c    13.341276283792837
_cell_angle_alpha    90.0
_cell_angle_beta    90.0
_cell_angle_gamma    119.99999999999984

_symmetry_space_group_name_H-M    'P 1'
loop_
_atom_site_label
_atom_site_type_symbol
_atom_site_fract_x
_atom_site_fract_y
_atom_site_fract_z
_atom_site_occupancy
C2   C   0.388652025977168   0.441369416868035   0.375000000000000   1.0000000
C2   C   0.443451263048826   0.386902526097652   0.375000000000000   1.0000000
C2   C   0.552717390890874   0.441369416868035   0.375000000000000   1.0000000
N2   N   0.111138550813558   0.055585089974315   0.125110822531086   1.0000000
N2   N   0.611152751757985   0.555620357128090   0.124241881114176   1.0000000
N2   N   0.444446539160757   0.055585089974315   0.125110822531086   1.0000000
N2   N   0.944441532375030   0.555540687051092   0.125004489091582   1.0000000
N2   N   0.777774194077949   0.055548388155898   0.125015393187448   1.0000000
N2   N   0.111106314585441   0.722212629170875   0.624984048130495   1.0000000
N2   N   0.444446889788015   0.722242147099685   0.625026538869805   1.0000000
N2   N   0.277828321566874   0.222300289093338   0.624726045589567   1.0000000
N2   N   0.777795257311678   0.722242147099685   0.625026538869805   1.0000000
N2   N   0.611128492188440   0.222226656509766   0.625000064203167   1.0000000
N2   N   0.944428836919508   0.222205495092686   0.624992199457530   1.0000000
N2   N   0.277769074395961   0.722221218260539   0.125026690672071   1.0000000
N2   N   0.111098164321326   0.222226656509766   0.124999935796833   1.0000000
N2   N   0.444471967526464   0.222300289093338   0.125273954410432   1.0000000
N2   N   0.611113761635254   0.722227523270501   0.124996720416168   1.0000000
N2   N   0.944452143864585   0.722221218260539   0.125026690672071   1.0000000
N2   N   0.777776658173178   0.222205495092686   0.125007800542471   1.0000000
N2   N   0.111127287384006   0.888905243195944   0.624945199996557   1.0000000
N2   N   0.444439101772639   0.888904822844103   0.624969530080278   1.0000000
N2   N   0.277724957712526   0.388887816481663   0.625551511854993   1.0000000
N2   N   0.611162858769145   0.388887816481663   0.625551511854993   1.0000000
N2   N   0.777789874734190   0.888896969340756   0.624966149107987   1.0000000
N2   N   0.944436574590366   0.388873149180733   0.624992689820027   1.0000000
N2   N   0.111086183114550   0.388877040743610   0.124999857533262   1.0000000
N2   N   0.277777955811945   0.888905243195944   0.125054800003443   1.0000000
N2   N   0.611107094606573   0.888896969340756   0.125033850892013   1.0000000
N2   N   0.444471328588060   0.388942657176120   0.124707598855707   1.0000000
N2   N   0.944465721071465   0.888904822844103   0.125030469919722   1.0000000
N2   N   0.777790857629067   0.388877040743610   0.124999857533262   1.0000000
N2   N   0.277767841111480   0.555555004837086   0.625022892583495   1.0000000
N2   N   0.111138550813558   0.055585089974315   0.624889177468915   1.0000000
N2   N   0.611152751757985   0.555620357128090   0.625758118885824   1.0000000
N2   N   0.444446539160757   0.055585089974315   0.624889177468915   1.0000000
N2   N   0.944441532375030   0.555540687051092   0.624995510908417   1.0000000
N2   N   0.111099154676061   0.555540687051092   0.125004489091582   1.0000000
N2   N   0.777774194077949   0.055548388155898   0.624984606812552   1.0000000
N2   N   0.277806879686483   0.055613759372959   0.125219347856627   1.0000000
N2   N   0.444467605370103   0.555620357128090   0.124241881114176   1.0000000
N2   N   0.777787163725607   0.555555004837086   0.124977107416498   1.0000000
N2   N   0.611105375403328   0.055559976599030   0.125036190309938   1.0000000
N2   N   0.444467605370103   0.555620357128090   0.625758118885824   1.0000000
N2   N   0.944454601195702   0.055559976599030   0.125036190309938   1.0000000
N2   N   0.277769074395961   0.722221218260539   0.624973309327929   1.0000000
N2   N   0.111098164321326   0.222226656509766   0.625000064203167   1.0000000
N2   N   0.444471967526464   0.222300289093338   0.624726045589567   1.0000000
N2   N   0.611113761635254   0.722227523270501   0.625003279583832   1.0000000
N2   N   0.944452143864585   0.722221218260539   0.624973309327929   1.0000000
N2   N   0.777776658173178   0.222205495092686   0.624992199457530   1.0000000
N2   N   0.111106314585441   0.722212629170875   0.125015951869505   1.0000000
N2   N   0.444446889788015   0.722242147099685   0.124973461130194   1.0000000
N2   N   0.277828321566874   0.222300289093338   0.125273954410432   1.0000000
N2   N   0.777795257311678   0.722242147099685   0.124973461130194   1.0000000
N2   N   0.611128492188440   0.222226656509766   0.124999935796833   1.0000000
N2   N   0.944428836919508   0.222205495092686   0.125007800542471   1.0000000
N2   N   0.111086183114550   0.388877040743610   0.625000142466738   1.0000000
N2   N   0.277777955811945   0.888905243195944   0.624945199996557   1.0000000
N2   N   0.611107094606573   0.888896969340756   0.624966149107987   1.0000000
N2   N   0.444471328588060   0.388942657176120   0.625292401144293   1.0000000
N2   N   0.944465721071465   0.888904822844103   0.624969530080278   1.0000000
N2   N   0.111127287384006   0.888905243195944   0.125054800003443   1.0000000
N2   N   0.777790857629067   0.388877040743610   0.625000142466738   1.0000000
N2   N   0.444439101772639   0.888904822844103   0.125030469919722   1.0000000
N2   N   0.277724957712526   0.388887816481663   0.124448488145007   1.0000000
N2   N   0.277767841111480   0.555555004837086   0.124977107416498   1.0000000
N2   N   0.611162858769145   0.388887816481663   0.124448488145007   1.0000000
N2   N   0.777789874734190   0.888896969340756   0.125033850892013   1.0000000
N2   N   0.944436574590366   0.388873149180733   0.125007310179972   1.0000000
N2   N   0.111099154676061   0.555540687051092   0.624995510908417   1.0000000
N2   N   0.277806879686483   0.055613759372959   0.624780652143366   1.0000000
N2   N   0.777787163725607   0.555555004837086   0.625022892583495   1.0000000
N2   N   0.611105375403328   0.055559976599030   0.624963809690062   1.0000000
N2   N   0.944454601195702   0.055559976599030   0.624963809690062   1.0000000
N2   N   0.054466121666921   0.110082178053246   0.375000000000000   1.0000000
N2   N   0.556978629174147   0.613957258348295   0.375000000000000   1.0000000
N2   N   0.389319446866894   0.112119934408280   0.375000000000000   1.0000000
N2   N   0.889120964548630   0.611293627373582   0.375000000000000   1.0000000
N2   N   0.722247479290964   0.110800309891582   0.375000000000000   1.0000000
N2   N   0.055558730983574   0.777783574622885   0.875000000000000   1.0000000
N2   N   0.388890712654973   0.777783116980249   0.875000000000000   1.0000000
N2   N   0.222221285292209   0.277772012517540   0.875000000000000   1.0000000
N2   N   0.722224038860093   0.777781248245194   0.875000000000000   1.0000000
N2   N   0.555550727225339   0.277772012517540   0.875000000000000   1.0000000
N2   N   0.888891357877945   0.277782715755896   0.875000000000000   1.0000000
N2   N   0.222323929596124   0.778243883143114   0.375000000000000   1.0000000
N2   N   0.054490323344193   0.277324338690300   0.375000000000000   1.0000000
N2   N   0.390485072044892   0.280970144089791   0.375000000000000   1.0000000
N2   N   0.555639447161597   0.778603593968018   0.375000000000000   1.0000000
N2   N   0.889528042963251   0.778285666134804   0.375000000000000   1.0000000
N2   N   0.722834015346108   0.277324338690300   0.375000000000000   1.0000000
N2   N   0.055553724927120   0.944445462271111   0.875000000000000   1.0000000
N2   N   0.388891737343991   0.944445462271111   0.875000000000000   1.0000000
N2   N   0.222221248543611   0.444447790568416   0.875000000000000   1.0000000
N2   N   0.555552757221115   0.444442800912192   0.875000000000000   1.0000000
N2   N   0.722223346943454   0.944446693886908   0.875000000000000   1.0000000
N2   N   0.888894033190653   0.444450881254381   0.875000000000000   1.0000000
N2   N   0.055154055702185   0.444563496057154   0.375000000000000   1.0000000
N2   N   0.222639374588376   0.945278749176759   0.375000000000000   1.0000000
N2   N   0.555461205686164   0.944357968599825   0.375000000000000   1.0000000
N2   N   0.888896762913661   0.944357968599825   0.375000000000000   1.0000000
N2   N   0.723401457459057   0.443944454733039   0.375000000000000   1.0000000
N2   N   0.222220932247191   0.611116066603198   0.875000000000000   1.0000000
N2   N   0.055553235305887   0.111106701614367   0.875000000000000   1.0000000
N2   N   0.555556969075046   0.611113938150092   0.875000000000000   1.0000000
N2   N   0.388888123450793   0.111106177161065   0.875000000000000   1.0000000
N2   N   0.888895134355999   0.611116066603198   0.875000000000000   1.0000000
N2   N   0.055724674951089   0.611449349902171   0.375000000000000   1.0000000
N2   N   0.722220475804378   0.111110814408067   0.875000000000000   1.0000000
N2   N   0.222800487541379   0.112119934408280   0.375000000000000   1.0000000
N2   N   0.388920682197041   0.612053404639783   0.375000000000000   1.0000000
N2   N   0.723132722442741   0.612053404639783   0.375000000000000   1.0000000
N2   N   0.555616056386325   0.110082178053246   0.375000000000000   1.0000000
N2   N   0.388887627622152   0.611114362658129   0.875000000000000   1.0000000
N2   N   0.888552830600610   0.110800309891582   0.375000000000000   1.0000000
N2   N   0.222224843639311   0.777783574622885   0.875000000000000   1.0000000
N2   N   0.055556571779083   0.277778869779326   0.875000000000000   1.0000000
N2   N   0.388886017945871   0.277772035891755   0.875000000000000   1.0000000
N2   N   0.555557209385101   0.777781248245194   0.875000000000000   1.0000000
N2   N   0.888892404325261   0.777783116980249   0.875000000000000   1.0000000
N2   N   0.722222298000243   0.277778869779326   0.875000000000000   1.0000000
N2   N   0.055919953546989   0.778243883143114   0.375000000000000   1.0000000
N2   N   0.388757623171546   0.778285666134804   0.375000000000000   1.0000000
N2   N   0.218777687113707   0.275312990050809   0.375000000000000   1.0000000
N2   N   0.722964146806420   0.778603593968018   0.375000000000000   1.0000000
N2   N   0.556535302937102   0.275312990050809   0.375000000000000   1.0000000
N2   N   0.888830028763453   0.277660057526912   0.375000000000000   1.0000000
N2   N   0.055556848063728   0.444450881254381   0.875000000000000   1.0000000
N2   N   0.222223631460689   0.944447262921385   0.875000000000000   1.0000000
N2   N   0.555555238930306   0.944446408444474   0.875000000000000   1.0000000
N2   N   0.388890043691070   0.444442800912192   0.875000000000000   1.0000000
N2   N   0.888891169514175   0.944446408444474   0.875000000000000   1.0000000
N2   N   0.055949944411488   0.944850395677293   0.375000000000000   1.0000000
N2   N   0.722226542024805   0.444447790568416   0.875000000000000   1.0000000
N2   N   0.388900451265805   0.944850395677293   0.375000000000000   1.0000000
N2   N   0.220542997273981   0.443944454733039   0.375000000000000   1.0000000
N2   N   0.222172662824944   0.611293627373582   0.375000000000000   1.0000000
N2   N   0.722233026336669   0.944466052673338   0.375000000000000   1.0000000
N2   N   0.889409440354969   0.444563496057154   0.375000000000000   1.0000000
N2   N   0.055558124091788   0.611116248183583   0.875000000000000   1.0000000
N2   N   0.222218053710265   0.111106177161065   0.875000000000000   1.0000000
N2   N   0.722226735035969   0.611114362658129   0.875000000000000   1.0000000
N2   N   0.555553466308480   0.111106701614367   0.875000000000000   1.0000000
N2   N   0.888890338603675   0.111110814408067   0.875000000000000   1.0000000
B2   B   0.110882337959724   0.055675579582408   0.375000000000000   1.0000000
B2   B   0.611289069568591   0.557214434721925   0.375000000000000   1.0000000
B2   B   0.444793241622684   0.055675579582408   0.375000000000000   1.0000000
B2   B   0.944605500882938   0.555748801197175   0.375000000000000   1.0000000
B2   B   0.777687399268850   0.055374798537700   0.375000000000000   1.0000000
B2   B   0.111107682308542   0.722215364617077   0.875000000000000   1.0000000
B2   B   0.444443604001921   0.722204545781311   0.875000000000000   1.0000000
B2   B   0.277783316158768   0.222241527531220   0.875000000000000   1.0000000
B2   B   0.777760941779390   0.722204545781311   0.875000000000000   1.0000000
B2   B   0.611117980001209   0.222235871624761   0.875000000000000   1.0000000
B2   B   0.944450813412359   0.222231567608969   0.875000000000000   1.0000000
B2   B   0.277735117231485   0.722407644031659   0.375000000000000   1.0000000
B2   B   0.108623153616765   0.220631088057162   0.375000000000000   1.0000000
B2   B   0.447003820335596   0.222564642434732   0.375000000000000   1.0000000
B2   B   0.612249125050229   0.724498250100457   0.375000000000000   1.0000000
B2   B   0.944672526800181   0.722407644031659   0.375000000000000   1.0000000
B2   B   0.778027827591585   0.221887683006186   0.375000000000000   1.0000000
B2   B   0.111098374232118   0.888877798537967   0.875000000000000   1.0000000
B2   B   0.444447196269653   0.888874708404083   0.875000000000000   1.0000000
B2   B   0.277800242946566   0.388916437594649   0.875000000000000   1.0000000
B2   B   0.611116194648090   0.388916437594649   0.875000000000000   1.0000000
B2   B   0.777765924610983   0.888871459302562   0.875000000000000   1.0000000
B2   B   0.944452113165736   0.388904226331479   0.875000000000000   1.0000000
B2   B   0.110056659119282   0.388706947188686   0.375000000000000   1.0000000
B2   B   0.277912569842745   0.889199617908935   0.375000000000000   1.0000000
B2   B   0.611158763359142   0.889201754338038   0.375000000000000   1.0000000
B2   B   0.944712564802192   0.889110736172455   0.375000000000000   1.0000000
B2   B   0.778650288069411   0.388706947188686   0.375000000000000   1.0000000
B2   B   0.277792306300339   0.555560021704874   0.875000000000000   1.0000000
B2   B   0.111098300915194   0.055550657264258   0.875000000000000   1.0000000
B2   B   0.611107257230507   0.555559076425757   0.875000000000000   1.0000000
B2   B   0.444452356349063   0.055550657264258   0.875000000000000   1.0000000
B2   B   0.944441711745901   0.555561333675449   0.875000000000000   1.0000000
B2   B   0.111143300314237   0.555748801197175   0.375000000000000   1.0000000
B2   B   0.777775192591194   0.055550385182379   0.875000000000000   1.0000000
B2   B   0.278020009947833   0.056040019895666   0.375000000000000   1.0000000
B2   B   0.445925365153333   0.557214434721925   0.375000000000000   1.0000000
B2   B   0.777693659883142   0.555573581456589   0.375000000000000   1.0000000
B2   B   0.611283762720622   0.054944396800614   0.375000000000000   1.0000000
B2   B   0.444451819195251   0.555559076425757   0.875000000000000   1.0000000
B2   B   0.943660634079992   0.054944396800614   0.375000000000000   1.0000000
B2   B   0.277781768492287   0.722212337194113   0.875000000000000   1.0000000
B2   B   0.111117891623560   0.222235871624761   0.875000000000000   1.0000000
B2   B   0.444458211372453   0.222241527531220   0.875000000000000   1.0000000
B2   B   0.611101015491111   0.722202030982208   0.875000000000000   1.0000000
B2   B   0.944430568701834   0.722212337194113   0.875000000000000   1.0000000
B2   B   0.777780754196616   0.222231567608969   0.875000000000000   1.0000000
B2   B   0.111264493541474   0.722528987082941   0.375000000000000   1.0000000
B2   B   0.444155483714286   0.722520858019248   0.375000000000000   1.0000000
B2   B   0.275560822099136   0.222564642434732   0.375000000000000   1.0000000
B2   B   0.778365374304962   0.722520858019248   0.375000000000000   1.0000000
B2   B   0.612007934440405   0.220631088057162   0.375000000000000   1.0000000
B2   B   0.943859855414601   0.221887683006186   0.375000000000000   1.0000000
B2   B   0.111127469342113   0.388906455047467   0.875000000000000   1.0000000
B2   B   0.277779424305864   0.888877798537967   0.875000000000000   1.0000000
B2   B   0.611105534691587   0.888871459302562   0.875000000000000   1.0000000
B2   B   0.444463042532815   0.388926085065637   0.875000000000000   1.0000000
B2   B   0.944427512134430   0.888874708404083   0.875000000000000   1.0000000
B2   B   0.111287048066190   0.889199617908935   0.375000000000000   1.0000000
B2   B   0.777778985705361   0.388906455047467   0.875000000000000   1.0000000
B2   B   0.444398171370264   0.889110736172455   0.375000000000000   1.0000000
B2   B   0.273968483777228   0.386417222718696   0.375000000000000   1.0000000
B2   B   0.277879921573448   0.555573581456589   0.375000000000000   1.0000000
B2   B   0.612448738941474   0.386417222718696   0.375000000000000   1.0000000
B2   B   0.778042990978910   0.889201754338038   0.375000000000000   1.0000000
B2   B   0.944438639725236   0.388877279450480   0.375000000000000   1.0000000
B2   B   0.111119621929547   0.555561333675449   0.875000000000000   1.0000000
B2   B   0.277777007803996   0.055554015607991   0.875000000000000   1.0000000
B2   B   0.777767715404536   0.555560021704874   0.875000000000000   1.0000000
B2   B   0.611113626796986   0.055549633978973   0.875000000000000   1.0000000
B2   B   0.944436007181981   0.055549633978973   0.875000000000000   1.0000000
B2   B   0.055543693533208   0.111149303378175   0.124994857838289   1.0000000
B2   B   0.555522248799997   0.611044497599995   0.124580877144089   1.0000000
B2   B   0.388942910242636   0.111168848306996   0.125025831830304   1.0000000
B2   B   0.888836492298985   0.611067996893211   0.125041392451844   1.0000000
B2   B   0.722233988624259   0.111116053915216   0.124996393047049   1.0000000
B2   B   0.055520360215787   0.777727660975711   0.625000588438004   1.0000000
B2   B   0.388891967339246   0.777741570839255   0.624982239460044   1.0000000
B2   B   0.222227883823661   0.277943669099199   0.625124914715457   1.0000000
B2   B   0.722200949209683   0.777735727729114   0.624996255588898   1.0000000
B2   B   0.555715785275544   0.277943669099199   0.625124914715457   1.0000000
B2   B   0.888890809923516   0.277781619847045   0.625007271583804   1.0000000
B2   B   0.222207300759931   0.777727660975711   0.124999411561996   1.0000000
B2   B   0.055546211606616   0.277808499209189   0.124988937976637   1.0000000
B2   B   0.389012161283736   0.278024322567480   0.124713225642868   1.0000000
B2   B   0.555534778519430   0.777735727729114   0.125003744411102   1.0000000
B2   B   0.888849603500002   0.777741570839255   0.125017760539955   1.0000000
B2   B   0.722262287602565   0.277808499209189   0.124988937976637   1.0000000
B2   B   0.055537833304649   0.944435233865069   0.624993918318229   1.0000000
B2   B   0.388897400560427   0.944435233865069   0.624993918318229   1.0000000
B2   B   0.222242837599909   0.444462247030623   0.625097351251854   1.0000000
B2   B   0.555642699470670   0.444554944834941   0.624871561427792   1.0000000
B2   B   0.722213403431026   0.944426806862043   0.625000697882132   1.0000000
B2   B   0.888882707483195   0.444434055458992   0.624990877455442   1.0000000
B2   B   0.055551347975796   0.444434055458992   0.125009122544559   1.0000000
B2   B   0.222208249051570   0.944416498103146   0.125006603316552   1.0000000
B2   B   0.555556334389433   0.944430947500918   0.125002758292832   1.0000000
B2   B   0.388912245364271   0.444554944834941   0.125128438572208   1.0000000
B2   B   0.888874613111485   0.944430947500918   0.125002758292832   1.0000000
B2   B   0.722219409430714   0.444462247030623   0.124902648748147   1.0000000
B2   B   0.222231504594219   0.611067996893211   0.624958607548156   1.0000000
B2   B   0.055543693533208   0.111149303378175   0.625005142161712   1.0000000
B2   B   0.555522248799997   0.611044497599995   0.625419122855910   1.0000000
B2   B   0.388942910242636   0.111168848306996   0.624974168169696   1.0000000
B2   B   0.888836492298985   0.611067996893211   0.624958607548156   1.0000000
B2   B   0.055533259701225   0.611066519402450   0.124996305446075   1.0000000
B2   B   0.722233988624259   0.111116053915216   0.625003606952951   1.0000000
B2   B   0.222225938064352   0.111168848306996   0.125025831830304   1.0000000
B2   B   0.388918407443764   0.611071439672235   0.124907209662905   1.0000000
B2   B   0.722153032228464   0.611071439672235   0.124907209662905   1.0000000
B2   B   0.555605609844973   0.111149303378175   0.124994857838289   1.0000000
B2   B   0.388918407443764   0.611071439672235   0.625092790337095   1.0000000
B2   B   0.888882065290958   0.111116053915216   0.124996393047049   1.0000000
B2   B   0.222207300759931   0.777727660975711   0.625000588438004   1.0000000
B2   B   0.055546211606616   0.277808499209189   0.625011062023363   1.0000000
B2   B   0.389012161283736   0.278024322567480   0.625286774357131   1.0000000
B2   B   0.555534778519430   0.777735727729114   0.624996255588898   1.0000000
B2   B   0.888849603500002   0.777741570839255   0.624982239460044   1.0000000
B2   B   0.722262287602565   0.277808499209189   0.625011062023363   1.0000000
B2   B   0.055520360215787   0.777727660975711   0.124999411561996   1.0000000
B2   B   0.388891967339246   0.777741570839255   0.125017760539955   1.0000000
B2   B   0.222227883823661   0.277943669099199   0.124875085284544   1.0000000
B2   B   0.722200949209683   0.777735727729114   0.125003744411102   1.0000000
B2   B   0.555715785275544   0.277943669099199   0.124875085284544   1.0000000
B2   B   0.888890809923516   0.277781619847045   0.124992728416196   1.0000000
B2   B   0.055551347975796   0.444434055458992   0.624990877455442   1.0000000
B2   B   0.222208249051570   0.944416498103146   0.624993396683447   1.0000000
B2   B   0.555556334389433   0.944430947500918   0.624997241707169   1.0000000
B2   B   0.388912245364271   0.444554944834941   0.624871561427792   1.0000000
B2   B   0.888874613111485   0.944430947500918   0.624997241707169   1.0000000
B2   B   0.055537833304649   0.944435233865069   0.125006081681771   1.0000000
B2   B   0.722219409430714   0.444462247030623   0.625097351251854   1.0000000
B2   B   0.388897400560427   0.944435233865069   0.125006081681771   1.0000000
B2   B   0.222242837599909   0.444462247030623   0.124902648748147   1.0000000
B2   B   0.222231504594219   0.611067996893211   0.125041392451844   1.0000000
B2   B   0.555642699470670   0.444554944834941   0.125128438572208   1.0000000
B2   B   0.722213403431026   0.944426806862043   0.124999302117867   1.0000000
B2   B   0.888882707483195   0.444434055458992   0.125009122544559   1.0000000
B2   B   0.055533259701225   0.611066519402450   0.625003694553925   1.0000000
B2   B   0.222225938064352   0.111168848306996   0.624974168169696   1.0000000
B2   B   0.722153032228464   0.611071439672235   0.625092790337095   1.0000000
B2   B   0.555605609844973   0.111149303378175   0.625005142161712   1.0000000
B2   B   0.888882065290958   0.111116053915216   0.625003606952951   1.0000000


