data_1
_audit_creation_method   'vasp2cif'
_cell_length_a    17.52789999999977
_cell_length_b    17.52789999999977
_cell_length_c    15.0
_cell_angle_alpha    90.0
_cell_angle_beta    90.0
_cell_angle_gamma    119.99999999999916

_symmetry_space_group_name_H-M    'P 1'
loop_
_atom_site_label
_atom_site_type_symbol
_atom_site_fract_x
_atom_site_fract_y
_atom_site_fract_z
_atom_site_occupancy
B2   B   0.903959171972804   0.951713038579749   0.111059696579005   1.0000000
B2   B   0.904457782731848   0.094871520760643   0.110709763429764   1.0000000
B2   B   0.904551974555049   0.237816506456680   0.110768789369488   1.0000000
B2   B   0.904672450727172   0.380830910989985   0.110663429711178   1.0000000
B2   B   0.905185054525479   0.523897469195899   0.110828912998052   1.0000000
B2   B   0.904672851848414   0.666867212714615   0.110983413973529   1.0000000
B2   B   0.904624387357680   0.809640162682823   0.110956884827031   1.0000000
B2   B   0.047492471633764   0.952347578531694   0.110894858232608   1.0000000
B2   B   0.047551975032644   0.095293499452260   0.110809882618384   1.0000000
B2   B   0.047523767238600   0.238034924908313   0.110966496495784   1.0000000
B2   B   0.047450903712632   0.380863579200796   0.110825996657751   1.0000000
B2   B   0.047623643409255   0.523822614305987   0.110749839829567   1.0000000
B2   B   0.047854497992265   0.666710174682915   0.110798095595227   1.0000000
B2   B   0.047724843852403   0.809562772341959   0.110852639717961   1.0000000
B2   B   0.190577109293871   0.952324604195730   0.110853557916532   1.0000000
B2   B   0.190297279554894   0.095218639787915   0.110944674142312   1.0000000
B2   B   0.191167963881684   0.239119210024137   0.111272321539292   1.0000000
B2   B   0.190348952289524   0.381226562336374   0.111576257127233   1.0000000
B2   B   0.190010275610909   0.523842032859793   0.111333410730359   1.0000000
B2   B   0.191080184405879   0.666526317876408   0.110804006838487   1.0000000
B2   B   0.190775468046066   0.809386010144258   0.110727594888146   1.0000000
B2   B   0.333558309376833   0.952035633049326   0.110971023010659   1.0000000
B2   B   0.333385171260775   0.095193252942056   0.111112058905725   1.0000000
B2   B   0.332814159671806   0.238048978441126   0.111399010990608   1.0000000
B2   B   0.335461024230636   0.384050963748856   0.111426202677324   1.0000000
B2   B   0.331631591667357   0.524232263867951   0.111057535355487   1.0000000
B2   B   0.334785727549179   0.666259009070990   0.110818783574284   1.0000000
B2   B   0.333809096099878   0.808949222561161   0.111059572007646   1.0000000
B2   B   0.476329007798417   0.951085738132731   0.110987678401559   1.0000000
B2   B   0.476227956357916   0.094741797963765   0.111013054004024   1.0000000
B2   B   0.476159882766240   0.238188815272743   0.111251754569077   1.0000000
B2   B   0.474583830043745   0.380574790254453   0.111191952692819   1.0000000
B2   B   0.478547480221421   0.538509565290065   0.111264558139171   1.0000000
B2   B   0.479122276100963   0.661299318294166   0.111132391778225   1.0000000
B2   B   0.476499685174369   0.806781205616450   0.111013857862397   1.0000000
B2   B   0.618816745929678   0.951553446608692   0.110918073198808   1.0000000
B2   B   0.618873000832484   0.094710029064852   0.110977333992569   1.0000000
B2   B   0.618910613021536   0.237947610603183   0.111150278086727   1.0000000
B2   B   0.619123026128351   0.381396036164124   0.111037353520965   1.0000000
B2   B   0.623218537854390   0.526039338103726   0.111226066134332   1.0000000
B2   B   0.613327022117344   0.663748336621270   0.110995584902037   1.0000000
B2   B   0.618506357943821   0.808818208399657   0.111149537476128   1.0000000
B2   B   0.761345714942235   0.951733128161164   0.110978339353538   1.0000000
B2   B   0.761597785456073   0.094743882068930   0.110981158688664   1.0000000
B2   B   0.761703308762983   0.237802334099646   0.111020659588042   1.0000000
B2   B   0.761919575900855   0.380933744969732   0.110944638092646   1.0000000
B2   B   0.763072360457156   0.524098312852396   0.111059095391896   1.0000000
B2   B   0.761549913052196   0.667534322291424   0.111432243120404   1.0000000
B2   B   0.759893758990950   0.807841709371219   0.111438885284390   1.0000000
C2   C   0.524691117541486   0.482161941370090   0.111128219916488   1.0000000
N2   N   0.952126488173822   0.904669171936022   0.110951422560085   1.0000000
N2   N   0.952006130175865   0.047194007020992   0.110694661550648   1.0000000
N2   N   0.952210065367424   0.190188476300610   0.110784859552863   1.0000000
N2   N   0.952199195967747   0.333107696997399   0.110430202443309   1.0000000
N2   N   0.952498519300458   0.476140139384345   0.110748745072074   1.0000000
N2   N   0.952465738656926   0.619223779068708   0.110931145247231   1.0000000
N2   N   0.952317725165117   0.762057221849425   0.110702955722036   1.0000000
N2   N   0.095245470970062   0.904780757294544   0.111007087496077   1.0000000
N2   N   0.095069368291326   0.047565114708154   0.110757036612105   1.0000000
N2   N   0.095578099717195   0.190860121168009   0.111042153448217   1.0000000
N2   N   0.095114891084523   0.333251943009649   0.111094397767949   1.0000000
N2   N   0.094938067775439   0.476124581178767   0.110940016004411   1.0000000
N2   N   0.095598054788441   0.619083519633852   0.110609340487965   1.0000000
N2   N   0.095441042375720   0.761946781113629   0.110851535297955   1.0000000
N2   N   0.238273368339231   0.904636285509431   0.110638830465196   1.0000000
N2   N   0.238079113391795   0.047621032439491   0.110947207484883   1.0000000
N2   N   0.237790359335042   0.190507033796124   0.111086593854078   1.0000000
N2   N   0.239539944285767   0.335119167306157   0.111590597905116   1.0000000
N2   N   0.237053869634201   0.476172918278240   0.111847818922163   1.0000000
N2   N   0.238977037374553   0.618974714279009   0.111034735447615   1.0000000
N2   N   0.238522484455199   0.761722291297382   0.110737361967354   1.0000000
N2   N   0.381147664295028   0.904141500976316   0.111279331280169   1.0000000
N2   N   0.380976106043097   0.047351251982694   0.110954382057909   1.0000000
N2   N   0.380820408921723   0.190585866148167   0.111365104433979   1.0000000
N2   N   0.380097553324940   0.333274498748008   0.111559870600240   1.0000000
N2   N   0.382826892418928   0.481354188664438   0.110974178198557   1.0000000
N2   N   0.382745276152669   0.618401788447032   0.110392096748994   1.0000000
N2   N   0.381533609465043   0.761100994632826   0.111023481097963   1.0000000
N2   N   0.523713290385763   0.902728702795162   0.110862066407624   1.0000000
N2   N   0.523674958638150   0.046678010203620   0.110777017243527   1.0000000
N2   N   0.523651461292325   0.190194003646431   0.111240169932377   1.0000000
N2   N   0.523398040439494   0.333680369259665   0.110992410556306   1.0000000
N2   N   0.524091848544470   0.757815058657304   0.111159029104170   1.0000000
N2   N   0.666274881027431   0.903969094019168   0.110799644356170   1.0000000
N2   N   0.666363394632204   0.046946641542303   0.111124853565126   1.0000000
N2   N   0.666436840352527   0.190126887109851   0.110982135543690   1.0000000
N2   N   0.666495453295178   0.333376217703725   0.111186556016603   1.0000000
N2   N   0.668629884039763   0.476859550728861   0.110999744638793   1.0000000
N2   N   0.665473857973777   0.620019951170337   0.111630609354786   1.0000000
N2   N   0.663240327243123   0.759020956545141   0.111439770254502   1.0000000
N2   N   0.808203546352783   0.903412661543808   0.111489426915228   1.0000000
N2   N   0.809187040527504   0.047063015579063   0.110605194444468   1.0000000
N2   N   0.809271005765119   0.190085040693074   0.111083324933756   1.0000000
N2   N   0.809383657328321   0.333136350898359   0.110863019665500   1.0000000
N2   N   0.810217916117780   0.476274181964362   0.110778367552072   1.0000000
N2   N   0.809178219054692   0.619491920627763   0.111279082858148   1.0000000
N2   N   0.809128151936416   0.762071841042673   0.111157156673752   1.0000000


