data_1
_audit_creation_method   'vasp2cif'
_cell_length_a    17.52789999999977
_cell_length_b    17.52789999999977
_cell_length_c    15.0
_cell_angle_alpha    90.0
_cell_angle_beta    90.0
_cell_angle_gamma    119.99999999999916

_symmetry_space_group_name_H-M    'P 1'
loop_
_atom_site_label
_atom_site_type_symbol
_atom_site_fract_x
_atom_site_fract_y
_atom_site_fract_z
_atom_site_occupancy
B2   B   0.902650554629247   0.949602812584282   0.106906508676353   1.0000000
B2   B   0.904289966332744   0.093023120161124   0.108831711571829   1.0000000
B2   B   0.905151089556204   0.236058963261509   0.108909601349699   1.0000000
B2   B   0.905389336370816   0.379072615178289   0.107758182538563   1.0000000
B2   B   0.905457330495320   0.522371607548861   0.105768585848715   1.0000000
B2   B   0.904667503256636   0.665465642021616   0.103635708077301   1.0000000
B2   B   0.903110179060911   0.807744545832997   0.103665732517300   1.0000000
B2   B   0.047295116862181   0.952620214484489   0.105992884646828   1.0000000
B2   B   0.048636078494232   0.095937432809081   0.106943943605193   1.0000000
B2   B   0.048904251531150   0.238006467751456   0.107560122492229   1.0000000
B2   B   0.048309202446499   0.380134343852070   0.107388611581108   1.0000000
B2   B   0.047235212764009   0.523053693006846   0.107368894273530   1.0000000
B2   B   0.046665449998866   0.666412720406751   0.107000544823354   1.0000000
B2   B   0.046793931673760   0.809558197646034   0.105899422210743   1.0000000
B2   B   0.190302346909729   0.953521828603659   0.107816777597461   1.0000000
B2   B   0.192090668851486   0.097675803787315   0.107095174222228   1.0000000
B2   B   0.195118022665762   0.242883917202840   0.107014162999472   1.0000000
B2   B   0.192743831552216   0.382699218485372   0.106435757227485   1.0000000
B2   B   0.189514938784478   0.524211084864309   0.106329786300896   1.0000000
B2   B   0.188027941559772   0.667080552507463   0.108251079103930   1.0000000
B2   B   0.189288063941448   0.810223859554502   0.108790778784265   1.0000000
B2   B   0.332775176832418   0.953173945371409   0.109627546316295   1.0000000
B2   B   0.334113267707991   0.096811504343360   0.109880557044118   1.0000000
B2   B   0.337025987475034   0.242542408248706   0.110572322039998   1.0000000
B2   B   0.343770898704828   0.393115162761302   0.110682796978108   1.0000000
B2   B   0.332779578445284   0.527076825180790   0.106442181977047   1.0000000
B2   B   0.328710867128353   0.668327590988617   0.106753731913994   1.0000000
B2   B   0.331501245010533   0.810417732909429   0.109863786428598   1.0000000
B2   B   0.475261308587503   0.951189196408041   0.110406780214332   1.0000000
B2   B   0.476337238140958   0.094405691450401   0.110604552495496   1.0000000
B2   B   0.477581783471384   0.237632240189535   0.116637949215918   1.0000000
B2   B   0.480183733326564   0.380569953224789   0.134506632655588   1.0000000
B2   B   0.489486819245062   0.579506116423406   0.124992027801150   1.0000000
B2   B   0.467182547773619   0.662616098066813   0.116354535368144   1.0000000
B2   B   0.473484889123058   0.807587942440797   0.112083536865444   1.0000000
B2   B   0.617431097502456   0.948485660746875   0.111460071699755   1.0000000
B2   B   0.618833032411920   0.092473178724143   0.110395330111382   1.0000000
B2   B   0.619808504818821   0.235538216431515   0.112495381125466   1.0000000
B2   B   0.621453962728089   0.378056152628602   0.120698492927905   1.0000000
B2   B   0.625194299261420   0.520797156083820   0.128939542930660   1.0000000
B2   B   0.610195427182594   0.651707127188971   0.111441666403926   1.0000000
B2   B   0.614241063775774   0.802473753943670   0.113415502830011   1.0000000
B2   B   0.759405548352975   0.947819717557359   0.110112229179053   1.0000000
B2   B   0.761337487027489   0.092012689243936   0.110211117190870   1.0000000
B2   B   0.762338026429611   0.235398115655544   0.109692116775382   1.0000000
B2   B   0.763167339068426   0.378550915124055   0.109476917797412   1.0000000
B2   B   0.763981451917220   0.521563406277924   0.107805337406791   1.0000000
B2   B   0.761342007645244   0.663128919153562   0.102479538336623   1.0000000
B2   B   0.756160593092952   0.802448820391789   0.107498490317017   1.0000000
N2   N   0.951352305462664   0.903314778979712   0.105219044724680   1.0000000
N2   N   0.952178773425395   0.045920473012610   0.107641750139013   1.0000000
N2   N   0.952986751355101   0.188790595166884   0.108693160906195   1.0000000
N2   N   0.952910978569331   0.331536495310688   0.108146475266115   1.0000000
N2   N   0.952391682992054   0.474500719145034   0.106943443267262   1.0000000
N2   N   0.951859636876794   0.617805896714280   0.105214830832855   1.0000000
N2   N   0.951392681041905   0.760850491242958   0.103640871809729   1.0000000
N2   N   0.094833463902012   0.905140097080981   0.106529847773267   1.0000000
N2   N   0.096242516252498   0.048556613495856   0.106471557200169   1.0000000
N2   N   0.098231174086831   0.192265293161839   0.106966248632251   1.0000000
N2   N   0.096820087029124   0.333354512949860   0.107010695777325   1.0000000
N2   N   0.094622480724811   0.475427961959695   0.107150854191993   1.0000000
N2   N   0.093425081434627   0.618499999030130   0.108003347353445   1.0000000
N2   N   0.094093075407720   0.761921160236721   0.107557950517067   1.0000000
N2   N   0.237461707380933   0.905666683868339   0.109026828274788   1.0000000
N2   N   0.238827553340100   0.049259409654639   0.107962562928267   1.0000000
N2   N   0.241506003732466   0.194039594044405   0.107186601418942   1.0000000
N2   N   0.245233949751956   0.339767032885355   0.107139151053453   1.0000000
N2   N   0.237844263297932   0.477291894574158   0.105657817025607   1.0000000
N2   N   0.234472427963956   0.619347085793266   0.106828890946310   1.0000000
N2   N   0.236278256028762   0.762477936095636   0.109345197168939   1.0000000
N2   N   0.379981403760298   0.905369491572307   0.110114795230040   1.0000000
N2   N   0.381087684186286   0.048471111927514   0.109871555011000   1.0000000
N2   N   0.382721710925103   0.192617965406308   0.112433176092408   1.0000000
N2   N   0.387546083324405   0.339936924872542   0.114892890522023   1.0000000
N2   N   0.391842398853331   0.491119548061475   0.110096962521219   1.0000000
N2   N   0.374387683110076   0.621116939597936   0.105612187171302   1.0000000
N2   N   0.378377613544662   0.762843308501834   0.109875746597839   1.0000000
N2   N   0.522243371460113   0.902828508968084   0.111370208140842   1.0000000
N2   N   0.523556312416018   0.046337602651320   0.110104034220057   1.0000000
N2   N   0.524601960721533   0.189553553609903   0.112655876000189   1.0000000
N2   N   0.526378620300022   0.332760295389109   0.126318220658823   1.0000000
N2   N   0.519184828268813   0.757879304873856   0.115381075319347   1.0000000
N2   N   0.663783608841735   0.899083315599980   0.111801446839469   1.0000000
N2   N   0.665924469512923   0.044216124006861   0.110656532415580   1.0000000
N2   N   0.667018476668057   0.187798633933384   0.110492756052202   1.0000000
N2   N   0.668031766125862   0.330640763948454   0.113738856030343   1.0000000
N2   N   0.669493840949667   0.472721253635530   0.117892887134419   1.0000000
N2   N   0.665740158161143   0.612440390290911   0.106239575249426   1.0000000
N2   N   0.658600938400439   0.750538429091553   0.111397578127789   1.0000000
N2   N   0.806071489368152   0.899328268150064   0.108238608179786   1.0000000
N2   N   0.808463701072353   0.043946333989900   0.109893798491608   1.0000000
N2   N   0.809647423250088   0.187653081145889   0.109696930670681   1.0000000
N2   N   0.810205829888650   0.330802914922029   0.108609178692853   1.0000000
N2   N   0.810638348001923   0.473782407311097   0.106368562655760   1.0000000
N2   N   0.809670523302618   0.616535744982890   0.103241048468940   1.0000000
N2   N   0.807092506216361   0.758153839173038   0.102938384786643   1.0000000
Sn2   Sn   0.522289566505380   0.504039917458179   0.239779512394745   1.0000000


