data_1
_audit_creation_method   'vasp2cif'
_cell_length_a    14.93631414619966
_cell_length_b    14.936314146199727
_cell_length_c    13.341276283792837
_cell_angle_alpha    90.0
_cell_angle_beta    90.0
_cell_angle_gamma    119.99999999999984

_symmetry_space_group_name_H-M    'P 1'
loop_
_atom_site_label
_atom_site_type_symbol
_atom_site_fract_x
_atom_site_fract_y
_atom_site_fract_z
_atom_site_occupancy
Ge2   Ge   0.555555555555557   0.444444444444443   0.375000000000000   1.0000000
N2   N   0.111076239672143   0.055548780424976   0.124498151629987   1.0000000
N2   N   0.611225546504670   0.555784426342666   0.123978910425491   1.0000000
N2   N   0.444459959692277   0.055572748781307   0.124952702356441   1.0000000
N2   N   0.944427251218691   0.555540040307702   0.124952702356441   1.0000000
N2   N   0.777784724249743   0.055559028791532   0.124176778837096   1.0000000
N2   N   0.111093533120940   0.722213433227141   0.625488935210916   1.0000000
N2   N   0.444459959692277   0.722220544244324   0.625047297643569   1.0000000
N2   N   0.277709479294713   0.222199383490333   0.625081750848430   1.0000000
N2   N   0.777800616509664   0.722290520705277   0.625081750848430   1.0000000
N2   N   0.611156570862280   0.222199383490333   0.625081750848430   1.0000000
N2   N   0.944440971208467   0.222215275750273   0.625823221162869   1.0000000
N2   N   0.277786566772885   0.722213433227141   0.124511064789063   1.0000000
N2   N   0.111051323049472   0.222192328191406   0.124352382785685   1.0000000
N2   N   0.444450308686437   0.222233950706213   0.125720932134610   1.0000000
N2   N   0.611156570862280   0.722290520705277   0.124918249151565   1.0000000
N2   N   0.944427251218691   0.722220544244324   0.124952702356441   1.0000000
N2   N   0.777807671808594   0.222192328191406   0.124352382785685   1.0000000
N2   N   0.111103950895819   0.888896049104181   0.625672843933925   1.0000000
N2   N   0.444458764875031   0.888896049104181   0.625672843933925   1.0000000
N2   N   0.277709479294713   0.388843429137699   0.625081750848430   1.0000000
N2   N   0.611225546504670   0.388774453495331   0.626021089574544   1.0000000
N2   N   0.777807671808594   0.888948676950516   0.625647617214272   1.0000000
N2   N   0.944451219575035   0.388860792580498   0.625501848370032   1.0000000
N2   N   0.111076239672143   0.388860792580498   0.124498151629987   1.0000000
N2   N   0.277786566772885   0.888906466879099   0.124511064789063   1.0000000
N2   N   0.611139207419502   0.888923760327882   0.124498151629987   1.0000000
N2   N   0.444215573657309   0.388774453495331   0.123978910425494   1.0000000
N2   N   0.944451219575035   0.888923760327882   0.124498151629987   1.0000000
N2   N   0.777800616509664   0.388843429137699   0.124918249151565   1.0000000
N2   N   0.277779455755694   0.555540040307702   0.625047297643569   1.0000000
N2   N   0.111076239672143   0.055548780424976   0.625501848370032   1.0000000
N2   N   0.611225546504670   0.555784426342666   0.626021089574544   1.0000000
N2   N   0.444459959692277   0.055572748781307   0.625047297643569   1.0000000
N2   N   0.944427251218691   0.555540040307702   0.625047297643569   1.0000000
N2   N   0.111103950895819   0.555541235124985   0.124327156066103   1.0000000
N2   N   0.777784724249743   0.055559028791532   0.625823221162869   1.0000000
N2   N   0.277779455755694   0.055572748781307   0.124952702356441   1.0000000
N2   N   0.444450308686437   0.555549691313575   0.125720932134610   1.0000000
N2   N   0.777766049293790   0.555549691313575   0.125720932134610   1.0000000
N2   N   0.611139207419502   0.055548780424976   0.124498151629987   1.0000000
N2   N   0.444450308686437   0.555549691313575   0.624279067865409   1.0000000
N2   N   0.944440971208467   0.055559028791532   0.124176778837096   1.0000000
N2   N   0.277786566772885   0.722213433227141   0.625488935210916   1.0000000
N2   N   0.111051323049472   0.222192328191406   0.625647617214272   1.0000000
N2   N   0.444450308686437   0.222233950706213   0.624279067865409   1.0000000
N2   N   0.611156570862280   0.722290520705277   0.625081750848430   1.0000000
N2   N   0.944427251218691   0.722220544244324   0.625047297643569   1.0000000
N2   N   0.777807671808594   0.222192328191406   0.625647617214272   1.0000000
N2   N   0.111093533120940   0.722213433227141   0.124511064789063   1.0000000
N2   N   0.444459959692277   0.722220544244324   0.124952702356441   1.0000000
N2   N   0.277709479294713   0.222199383490333   0.124918249151565   1.0000000
N2   N   0.777800616509664   0.722290520705277   0.124918249151565   1.0000000
N2   N   0.611156570862280   0.222199383490333   0.124918249151565   1.0000000
N2   N   0.944440971208467   0.222215275750273   0.124176778837096   1.0000000
N2   N   0.111076239672141   0.388860792580498   0.625501848370032   1.0000000
N2   N   0.277786566772885   0.888906466879099   0.625488935210916   1.0000000
N2   N   0.611139207419502   0.888923760327882   0.625501848370032   1.0000000
N2   N   0.444215573657309   0.388774453495331   0.626021089574544   1.0000000
N2   N   0.944451219575035   0.888923760327882   0.625501848370032   1.0000000
N2   N   0.111103950895819   0.888896049104181   0.124327156066103   1.0000000
N2   N   0.777800616509664   0.388843429137699   0.625081750848430   1.0000000
N2   N   0.444458764875031   0.888896049104181   0.124327156066103   1.0000000
N2   N   0.277709479294713   0.388843429137699   0.124918249151565   1.0000000
N2   N   0.277779455755694   0.555540040307702   0.124952702356441   1.0000000
N2   N   0.611225546504670   0.388774453495331   0.123978910425491   1.0000000
N2   N   0.777807671808594   0.888948676950516   0.124352382785685   1.0000000
N2   N   0.944451219575035   0.388860792580498   0.124498151629987   1.0000000
N2   N   0.111103950895819   0.555541235124985   0.625672843933925   1.0000000
N2   N   0.277779455755694   0.055572748781307   0.625047297643569   1.0000000
N2   N   0.777766049293790   0.555549691313575   0.624279067865409   1.0000000
N2   N   0.611139207419502   0.055548780424976   0.625501848370032   1.0000000
N2   N   0.944440971208467   0.055559028791532   0.625823221162869   1.0000000
N2   N   0.054349948797432   0.110296850222344   0.375000000000000   1.0000000
N2   N   0.555693301997091   0.621593642161151   0.375000000000000   1.0000000
N2   N   0.387509411322417   0.108352155978156   0.375000000000000   1.0000000
N2   N   0.891647844021823   0.612490588677560   0.375000000000000   1.0000000
N2   N   0.722613568091581   0.110296850222344   0.375000000000000   1.0000000
N2   N   0.055545756065338   0.777759064581390   0.875000000000000   1.0000000
N2   N   0.388879975182672   0.777759064581390   0.875000000000000   1.0000000
N2   N   0.222251623093675   0.277792478213521   0.875000000000000   1.0000000
N2   N   0.722207521786454   0.777748376906294   0.875000000000000   1.0000000
N2   N   0.555554547466594   0.277777216068789   0.875000000000000   1.0000000
N2   N   0.888903856373741   0.277789573477592   0.875000000000000   1.0000000
N2   N   0.222222222222221   0.777777777777779   0.375000000000000   1.0000000
N2   N   0.054349948797432   0.277386431908417   0.375000000000000   1.0000000
N2   N   0.378406357838821   0.267432993169256   0.375000000000000   1.0000000
N2   N   0.555061161662121   0.781925243901079   0.375000000000000   1.0000000
N2   N   0.893530748905645   0.781925243901079   0.375000000000000   1.0000000
N2   N   0.724178007752587   0.275821992247409   0.375000000000000   1.0000000
N2   N   0.055551528830772   0.944448471169258   0.875000000000000   1.0000000
N2   N   0.388879975182672   0.944454243934692   0.875000000000000   1.0000000
N2   N   0.222225374455756   0.444449528186613   0.875000000000000   1.0000000
N2   N   0.555555555555557   0.444444444444443   0.875000000000000   1.0000000
N2   N   0.722210426522400   0.944447616229504   0.875000000000000   1.0000000
N2   N   0.888890820397515   0.444449528186613   0.875000000000000   1.0000000
N2   N   0.055794651465759   0.444922636264853   0.375000000000000   1.0000000
N2   N   0.221797957802584   0.943280393309417   0.375000000000000   1.0000000
N2   N   0.555077363735178   0.944205348534259   0.375000000000000   1.0000000
N2   N   0.378406357838821   0.444306698002910   0.375000000000000   1.0000000
N2   N   0.889703149777676   0.945650051202550   0.375000000000000   1.0000000
N2   N   0.732567006830766   0.444306698002910   0.375000000000000   1.0000000
N2   N   0.222240935418641   0.611120024817293   0.875000000000000   1.0000000
N2   N   0.055552383770480   0.111096143626214   0.875000000000000   1.0000000
N2   N   0.555554547466594   0.611110664731136   0.875000000000000   1.0000000
N2   N   0.388884126612341   0.111101586558036   0.875000000000000   1.0000000
N2   N   0.888898413441976   0.611115873387671   0.875000000000000   1.0000000
N2   N   0.056719606690586   0.611850897826487   0.375000000000000   1.0000000
N2   N   0.722210426522400   0.111096143626214   0.875000000000000   1.0000000
N2   N   0.218074756098905   0.106469251094323   0.375000000000000   1.0000000
N2   N   0.387509411322417   0.612490588677560   0.375000000000000   1.0000000
N2   N   0.732567006830766   0.621593642161151   0.375000000000000   1.0000000
N2   N   0.555061161662121   0.106469251094323   0.375000000000000   1.0000000
N2   N   0.388884126612341   0.611115873387671   0.875000000000000   1.0000000
N2   N   0.888888888888886   0.111111111111114   0.375000000000000   1.0000000
N2   N   0.222222222222221   0.777777777777779   0.875000000000000   1.0000000
N2   N   0.055552383770480   0.277789573477592   0.875000000000000   1.0000000
N2   N   0.388889335268878   0.277777216068789   0.875000000000000   1.0000000
N2   N   0.555550471813390   0.777774625544242   0.875000000000000   1.0000000
N2   N   0.888890820397515   0.777774625544242   0.875000000000000   1.0000000
N2   N   0.722207521786454   0.277792478213521   0.875000000000000   1.0000000
N2   N   0.056719606690586   0.778202042197391   0.375000000000000   1.0000000
N2   N   0.388149102173503   0.778202042197391   0.375000000000000   1.0000000
N2   N   0.218310651161479   0.275821992247409   0.375000000000000   1.0000000
N2   N   0.724178007752587   0.781689348838517   0.375000000000000   1.0000000
N2   N   0.555693301997091   0.267432993169256   0.375000000000000   1.0000000
N2   N   0.889703149777676   0.277386431908417   0.375000000000000   1.0000000
N2   N   0.055551528830771   0.444436390994856   0.875000000000000   1.0000000
N2   N   0.222240935418641   0.944454243934692   0.875000000000000   1.0000000
N2   N   0.555563609005114   0.944448471169258   0.875000000000000   1.0000000
N2   N   0.388889335268878   0.444445452533421   0.875000000000000   1.0000000
N2   N   0.888903856373741   0.944447616229504   0.875000000000000   1.0000000
N2   N   0.055794651465759   0.944205348534259   0.375000000000000   1.0000000
N2   N   0.722222783931215   0.444445452533421   0.875000000000000   1.0000000
N2   N   0.388149102173503   0.943280393309417   0.375000000000000   1.0000000
N2   N   0.218074756098905   0.444938838337915   0.375000000000000   1.0000000
N2   N   0.221797957802584   0.611850897826487   0.375000000000000   1.0000000
N2   N   0.722613568091581   0.945650051202550   0.375000000000000   1.0000000
N2   N   0.893530748905645   0.444938838337915   0.375000000000000   1.0000000
N2   N   0.055545756065338   0.611120024817293   0.875000000000000   1.0000000
N2   N   0.222225374455756   0.111109179602477   0.875000000000000   1.0000000
N2   N   0.722222783931215   0.611110664731136   0.875000000000000   1.0000000
N2   N   0.555550471813390   0.111109179602477   0.875000000000000   1.0000000
N2   N   0.888888888888886   0.111111111111114   0.875000000000000   1.0000000
B2   B   0.108921262859227   0.053770857671524   0.375000000000000   1.0000000
B2   B   0.623489800746038   0.580312934825441   0.375000000000000   1.0000000
B2   B   0.443858167133953   0.053777296640418   0.375000000000000   1.0000000
B2   B   0.946222703359542   0.556141832866059   0.375000000000000   1.0000000
B2   B   0.778207759868387   0.055770546600873   0.375000000000000   1.0000000
B2   B   0.110998693918718   0.722166013626004   0.875000000000000   1.0000000
B2   B   0.444361353771102   0.722148918956096   0.875000000000000   1.0000000
B2   B   0.277904143446888   0.222366250116759   0.875000000000000   1.0000000
B2   B   0.777633749883242   0.722095856553087   0.875000000000000   1.0000000
B2   B   0.611128773336534   0.222366250116759   0.875000000000000   1.0000000
B2   B   0.944500033618570   0.222333400570378   0.875000000000000   1.0000000
B2   B   0.277507100736465   0.722492899263521   0.375000000000000   1.0000000
B2   B   0.108893063673974   0.221113198503652   0.375000000000000   1.0000000
B2   B   0.443110816204125   0.219554965741580   0.375000000000000   1.0000000
B2   B   0.611975751878883   0.729374749120517   0.375000000000000   1.0000000
B2   B   0.946222703359542   0.723414203826826   0.375000000000000   1.0000000
B2   B   0.778886801496372   0.221113198503652   0.375000000000000   1.0000000
B2   B   0.111110315218002   0.888889684782000   0.875000000000000   1.0000000
B2   B   0.444446036230682   0.888889684782000   0.875000000000000   1.0000000
B2   B   0.277904143446888   0.388871226663446   0.875000000000000   1.0000000
B2   B   0.611106375700048   0.388893624299933   0.875000000000000   1.0000000
B2   B   0.777754207313168   0.888841747959676   0.875000000000000   1.0000000
B2   B   0.944479013976117   0.388855422131191   0.875000000000000   1.0000000
B2   B   0.108921262859227   0.388483738521041   0.375000000000000   1.0000000
B2   B   0.277507100736465   0.888347534806258   0.375000000000000   1.0000000
B2   B   0.611516261478987   0.891078737140788   0.375000000000000   1.0000000
B2   B   0.419687065174610   0.376510199253944   0.375000000000000   1.0000000
B2   B   0.946229142328469   0.891078737140788   0.375000000000000   1.0000000
B2   B   0.784065663908247   0.388024248121111   0.375000000000000   1.0000000
B2   B   0.277851081043913   0.555638646228927   0.875000000000000   1.0000000
B2   B   0.111043074821727   0.055520986023866   0.875000000000000   1.0000000
B2   B   0.611106375700048   0.555546084733462   0.875000000000000   1.0000000
B2   B   0.444361353771102   0.055545768148338   0.875000000000000   1.0000000
B2   B   0.944454231851693   0.555638646228927   0.875000000000000   1.0000000
B2   B   0.111297236774657   0.555927806882643   0.375000000000000   1.0000000
B2   B   0.777666599429594   0.055499966381480   0.875000000000000   1.0000000
B2   B   0.276585796173142   0.053777296640418   0.375000000000000   1.0000000
B2   B   0.443110816204125   0.556889183795900   0.375000000000000   1.0000000
B2   B   0.780445034258414   0.556889183795900   0.375000000000000   1.0000000
B2   B   0.611516261478987   0.053770857671524   0.375000000000000   1.0000000
B2   B   0.444476326309549   0.555523673690441   0.875000000000000   1.0000000
B2   B   0.944229453399141   0.055770546600873   0.375000000000000   1.0000000
B2   B   0.277833986373983   0.722166013626004   0.875000000000000   1.0000000
B2   B   0.111158252040354   0.222245792686840   0.875000000000000   1.0000000
B2   B   0.444476326309549   0.222285985952426   0.875000000000000   1.0000000
B2   B   0.611128773336534   0.722095856553087   0.875000000000000   1.0000000
B2   B   0.944454231851693   0.722148918956096   0.875000000000000   1.0000000
B2   B   0.777754207313168   0.222245792686840   0.875000000000000   1.0000000
B2   B   0.111652465193760   0.722492899263521   0.375000000000000   1.0000000
B2   B   0.443858167133953   0.723414203826826   0.375000000000000   1.0000000
B2   B   0.270625250879530   0.215934336091741   0.375000000000000   1.0000000
B2   B   0.784065663908247   0.729374749120517   0.375000000000000   1.0000000
B2   B   0.611975751878883   0.215934336091741   0.375000000000000   1.0000000
B2   B   0.944229453399141   0.221792240131586   0.375000000000000   1.0000000
B2   B   0.111043074821727   0.388855422131191   0.875000000000000   1.0000000
B2   B   0.277833986373983   0.889001306081295   0.875000000000000   1.0000000
B2   B   0.611144577868821   0.888956925178270   0.875000000000000   1.0000000
B2   B   0.444453915266521   0.388893624299933   0.875000000000000   1.0000000
B2   B   0.944479013976117   0.888956925178270   0.875000000000000   1.0000000
B2   B   0.111297236774657   0.888702763225363   0.375000000000000   1.0000000
B2   B   0.777633749883242   0.388871226663446   0.875000000000000   1.0000000
B2   B   0.444072193117357   0.888702763225363   0.375000000000000   1.0000000
B2   B   0.270625250879530   0.388024248121111   0.375000000000000   1.0000000
B2   B   0.276585796173142   0.556141832866059   0.375000000000000   1.0000000
B2   B   0.623489800746038   0.376510199253944   0.375000000000000   1.0000000
B2   B   0.778886801496372   0.891106936326008   0.375000000000000   1.0000000
B2   B   0.946229142328469   0.388483738521041   0.375000000000000   1.0000000
B2   B   0.111110315218002   0.555553963769339   0.875000000000000   1.0000000
B2   B   0.277851081043913   0.055545768148338   0.875000000000000   1.0000000
B2   B   0.777714014047567   0.555523673690441   0.875000000000000   1.0000000
B2   B   0.611144577868821   0.055520986023866   0.875000000000000   1.0000000
B2   B   0.944500033618570   0.055499966381480   0.875000000000000   1.0000000
B2   B   0.055542210997236   0.111082150248734   0.124406930840933   1.0000000
B2   B   0.555738844413946   0.610960898983133   0.125402034178418   1.0000000
B2   B   0.388986214827651   0.111305762988628   0.125469145833275   1.0000000
B2   B   0.888694237011355   0.611013785172367   0.125469145833275   1.0000000
B2   B   0.722206605918145   0.111082150248734   0.124406930840933   1.0000000
B2   B   0.055434895887008   0.777678725357625   0.625386725011155   1.0000000
B2   B   0.388910496137261   0.777678725357625   0.625386725011155   1.0000000
B2   B   0.222371051267648   0.277852192300475   0.625111677299753   1.0000000
B2   B   0.722147807699489   0.777628948732385   0.625111677299753   1.0000000
B2   B   0.555738844413946   0.278111278764156   0.624597965821586   1.0000000
B2   B   0.888917849751271   0.277793394081844   0.625593069159075   1.0000000
B2   B   0.222222222222221   0.777777777777779   0.124500188839240   1.0000000
B2   B   0.055542210997236   0.277793394081844   0.124406930840933   1.0000000
B2   B   0.389039101016897   0.278111278764156   0.125402034178418   1.0000000
B2   B   0.555612818831997   0.777702631566854   0.124946717436072   1.0000000
B2   B   0.888756479401474   0.777702631566854   0.124946717436072   1.0000000
B2   B   0.722147807699489   0.277852192300475   0.124888322700260   1.0000000
B2   B   0.055503710388200   0.944496289611829   0.625524500791033   1.0000000
B2   B   0.388910496137261   0.944565104112998   0.625386725011155   1.0000000
B2   B   0.222297368433155   0.444387181167989   0.625053282563954   1.0000000
B2   B   0.555555555555557   0.444444444444443   0.621479718148689   1.0000000
B2   B   0.722206605918145   0.944457789002772   0.625593069159075   1.0000000
B2   B   0.888756479401474   0.444387181167989   0.625053282563954   1.0000000
B2   B   0.055503710388200   0.444340754109730   0.124475499208982   1.0000000
B2   B   0.222321274642396   0.944565104112998   0.124613274988833   1.0000000
B2   B   0.555659245890250   0.944496289611829   0.124475499208982   1.0000000
B2   B   0.389039101016897   0.444261155586061   0.125402034178418   1.0000000
B2   B   0.888917849751271   0.944457789002772   0.124406930840933   1.0000000
B2   B   0.721888721235850   0.444261155586061   0.125402034178418   1.0000000
B2   B   0.222321274642396   0.611089503862770   0.625386725011155   1.0000000
B2   B   0.055542210997236   0.111082150248734   0.625593069159075   1.0000000
B2   B   0.555738844413946   0.610960898983133   0.624597965821586   1.0000000
B2   B   0.388986214827651   0.111305762988628   0.624530854166750   1.0000000
B2   B   0.888694237011355   0.611013785172367   0.624530854166750   1.0000000
B2   B   0.055434895887008   0.611089503862770   0.124613274988833   1.0000000
B2   B   0.722206605918145   0.111082150248734   0.625593069159075   1.0000000
B2   B   0.222297368433155   0.111243520598510   0.124946717436072   1.0000000
B2   B   0.388986214827651   0.611013785172367   0.125469145833275   1.0000000
B2   B   0.721888721235850   0.610960898983133   0.125402034178418   1.0000000
B2   B   0.555612818831997   0.111243520598510   0.124946717436072   1.0000000
B2   B   0.388986214827651   0.611013785172367   0.624530854166750   1.0000000
B2   B   0.888888888888886   0.111111111111114   0.124224670317215   1.0000000
B2   B   0.222222222222221   0.777777777777779   0.625499811160763   1.0000000
B2   B   0.055542210997236   0.277793394081844   0.625593069159075   1.0000000
B2   B   0.389039101016897   0.278111278764156   0.624597965821586   1.0000000
B2   B   0.555612818831997   0.777702631566854   0.625053282563954   1.0000000
B2   B   0.888756479401474   0.777702631566854   0.625053282563954   1.0000000
B2   B   0.722147807699489   0.277852192300475   0.625111677299753   1.0000000
B2   B   0.055434895887008   0.777678725357625   0.124613274988833   1.0000000
B2   B   0.388910496137261   0.777678725357625   0.124613274988833   1.0000000
B2   B   0.222371051267648   0.277852192300475   0.124888322700260   1.0000000
B2   B   0.722147807699489   0.777628948732385   0.124888322700260   1.0000000
B2   B   0.555738844413946   0.278111278764156   0.125402034178418   1.0000000
B2   B   0.888917849751271   0.277793394081844   0.124406930840933   1.0000000
B2   B   0.055503710388200   0.444340754109730   0.625524500791033   1.0000000
B2   B   0.222321274642396   0.944565104112998   0.625386725011155   1.0000000
B2   B   0.555659245890250   0.944496289611829   0.625524500791033   1.0000000
B2   B   0.389039101016897   0.444261155586061   0.624597965821586   1.0000000
B2   B   0.888917849751271   0.944457789002772   0.625593069159075   1.0000000
B2   B   0.055503710388200   0.944496289611829   0.124475499208982   1.0000000
B2   B   0.721888721235850   0.444261155586061   0.624597965821586   1.0000000
B2   B   0.388910496137261   0.944565104112998   0.124613274988833   1.0000000
B2   B   0.222297368433155   0.444387181167989   0.124946717436072   1.0000000
B2   B   0.222321274642396   0.611089503862770   0.124613274988833   1.0000000
B2   B   0.555555555555557   0.444444444444443   0.128520281851343   1.0000000
B2   B   0.722206605918145   0.944457789002772   0.124406930840933   1.0000000
B2   B   0.888756479401474   0.444387181167989   0.124946717436072   1.0000000
B2   B   0.055434895887008   0.611089503862770   0.625386725011155   1.0000000
B2   B   0.222297368433155   0.111243520598510   0.625053282563954   1.0000000
B2   B   0.721888721235850   0.610960898983133   0.624597965821586   1.0000000
B2   B   0.555612818831997   0.111243520598510   0.625053282563954   1.0000000
B2   B   0.888888888888886   0.111111111111114   0.625775329682741   1.0000000


