data_1
_audit_creation_method   'vasp2cif'
_cell_length_a    17.52789999999977
_cell_length_b    17.52789999999977
_cell_length_c    15.0
_cell_angle_alpha    90.0
_cell_angle_beta    90.0
_cell_angle_gamma    119.99999999999916

_symmetry_space_group_name_H-M    'P 1'
loop_
_atom_site_label
_atom_site_type_symbol
_atom_site_fract_x
_atom_site_fract_y
_atom_site_fract_z
_atom_site_occupancy
Al2   Al   0.530210397002424   0.625612201058451   0.111394951199232   1.0000000
B2   B   0.909618920444111   0.955872163915204   0.110887434612811   1.0000000
B2   B   0.904518518350072   0.095229226561999   0.111006821136671   1.0000000
B2   B   0.902934657665560   0.237094778259724   0.111037948510346   1.0000000
B2   B   0.903499619918531   0.380139372470149   0.110970118731370   1.0000000
B2   B   0.906704254146405   0.524133829714538   0.110993887507924   1.0000000
B2   B   0.912015033378992   0.668995030233878   0.110935977879663   1.0000000
B2   B   0.913286099322883   0.814584550134825   0.110904552067166   1.0000000
B2   B   0.050907323391558   0.953954840347086   0.110972764062822   1.0000000
B2   B   0.047234440490947   0.094393868175043   0.110957108183241   1.0000000
B2   B   0.044282030128638   0.235822130023560   0.110935867836896   1.0000000
B2   B   0.043803740480774   0.379156190241907   0.110934908471603   1.0000000
B2   B   0.045555565071920   0.523370515238073   0.110965891731571   1.0000000
B2   B   0.049364362457476   0.667633986128791   0.111020287174472   1.0000000
B2   B   0.051430934654783   0.811312786276103   0.111034085980743   1.0000000
B2   B   0.191855302891819   0.952610108457296   0.111052783868732   1.0000000
B2   B   0.189707293758089   0.093315192480067   0.111070754284647   1.0000000
B2   B   0.184819461634859   0.232705002240637   0.110970549257106   1.0000000
B2   B   0.183364265408694   0.376630004516252   0.110934428198723   1.0000000
B2   B   0.183884176582981   0.522405410713932   0.111007902472409   1.0000000
B2   B   0.187521145345650   0.667197864057626   0.111079696845445   1.0000000
B2   B   0.191346025403826   0.810429601350873   0.111030594625430   1.0000000
B2   B   0.333487630620727   0.952428115895347   0.111041890095413   1.0000000
B2   B   0.332893297044874   0.093521708158538   0.111120372995615   1.0000000
B2   B   0.328598399969271   0.232092553456847   0.111021023802534   1.0000000
B2   B   0.320681225260728   0.370053621626066   0.110934302963901   1.0000000
B2   B   0.320459056686204   0.519359878759875   0.111102235608068   1.0000000
B2   B   0.324690062170835   0.667059231732999   0.111118584582271   1.0000000
B2   B   0.332142392395596   0.810547526664257   0.111050353871142   1.0000000
B2   B   0.475809306786906   0.953322456176997   0.110954511426176   1.0000000
B2   B   0.475964726861208   0.093814731515555   0.111053005230916   1.0000000
B2   B   0.475225663934496   0.233063943355001   0.111039056114800   1.0000000
B2   B   0.466694040058355   0.362415282464180   0.111016704879484   1.0000000
B2   B   0.446721596498287   0.506380234809935   0.111233298083146   1.0000000
B2   B   0.457983330242981   0.676483979665424   0.111436324786595   1.0000000
B2   B   0.474751670080939   0.813515175775649   0.111025446023810   1.0000000
B2   B   0.619423544028545   0.953331875688948   0.110974603265717   1.0000000
B2   B   0.618863786974507   0.095021159803745   0.110982056176819   1.0000000
B2   B   0.619123512438554   0.237193292282129   0.110976267421426   1.0000000
B2   B   0.621072956641832   0.380616472744112   0.111002099004571   1.0000000
B2   B   0.639655567676073   0.536207451921136   0.111100752292852   1.0000000
B2   B   0.650315805292490   0.682052634182835   0.111724743699912   1.0000000
B2   B   0.623214641665670   0.812583347110100   0.111131544482213   1.0000000
B2   B   0.764317615755632   0.954370743924734   0.110928429350947   1.0000000
B2   B   0.761595050396497   0.095259767998062   0.111070205422125   1.0000000
B2   B   0.761268086351030   0.237481718222976   0.111024336901982   1.0000000
B2   B   0.762722876919503   0.380598559603537   0.110964658522605   1.0000000
B2   B   0.768270449455505   0.525247813050923   0.110962986894525   1.0000000
B2   B   0.780110715604906   0.675165520636032   0.111031743259015   1.0000000
B2   B   0.773985412516682   0.818244853861355   0.110911671268592   1.0000000
N2   N   0.957279270747807   0.908425376977672   0.110909960514101   1.0000000
N2   N   0.953515390216219   0.049168188559585   0.110935229179708   1.0000000
N2   N   0.950226059209094   0.189503015833676   0.110991759280604   1.0000000
N2   N   0.949809528091385   0.331869887445352   0.110968236784824   1.0000000
N2   N   0.951628935312550   0.475166722274396   0.110956388665056   1.0000000
N2   N   0.955830112973446   0.619320043014975   0.110984114645656   1.0000000
N2   N   0.957742065240599   0.764264756531927   0.110970046460052   1.0000000
N2   N   0.097779015777799   0.905968100808163   0.111004804085108   1.0000000
N2   N   0.095867325429673   0.047871660407911   0.110975552572352   1.0000000
N2   N   0.091658921804426   0.188042241278795   0.110928654779338   1.0000000
N2   N   0.090167225833523   0.330594274994828   0.110896136902155   1.0000000
N2   N   0.090764134950951   0.474339124003374   0.110929762441863   1.0000000
N2   N   0.094039178463922   0.618574844299122   0.111001364545503   1.0000000
N2   N   0.097257015031971   0.762681409352335   0.111016573657490   1.0000000
N2   N   0.239076072894896   0.905136252403384   0.111017367158251   1.0000000
N2   N   0.238445902662186   0.047121087121550   0.111084890569351   1.0000000
N2   N   0.234883383817858   0.187342186834310   0.111040166068087   1.0000000
N2   N   0.228537762514718   0.326223430210364   0.110907450309326   1.0000000
N2   N   0.228650401872250   0.472596463460847   0.110991707544730   1.0000000
N2   N   0.231925146282476   0.617907917236082   0.111068529561381   1.0000000
N2   N   0.237630154309586   0.762237804524016   0.111052896537931   1.0000000
N2   N   0.380960477384318   0.905148504699018   0.110975368349386   1.0000000
N2   N   0.381149824237930   0.047029148928297   0.111080975718193   1.0000000
N2   N   0.379881122958191   0.188194959231451   0.111058119923621   1.0000000
N2   N   0.373863121347416   0.326719094810908   0.110937282908668   1.0000000
N2   N   0.358784035114058   0.463101082695356   0.110993835798131   1.0000000
N2   N   0.368249921170733   0.616714216759629   0.111178840177092   1.0000000
N2   N   0.378982948411333   0.762503674922877   0.111074133618405   1.0000000
N2   N   0.523957838287039   0.906716780478293   0.110932686612795   1.0000000
N2   N   0.523911769638688   0.047420780308596   0.110960734816725   1.0000000
N2   N   0.523914330643631   0.188193026309095   0.111014799432953   1.0000000
N2   N   0.523527236671842   0.327592679309033   0.111013719873212   1.0000000
N2   N   0.523639966355281   0.766516901470129   0.111126702434853   1.0000000
N2   N   0.668021187579744   0.906068559554435   0.110956654241570   1.0000000
N2   N   0.666546641587068   0.047604971163656   0.110998565619021   1.0000000
N2   N   0.666375834812411   0.189887066521463   0.110972789622728   1.0000000
N2   N   0.667204909759616   0.332717255775047   0.110950958537495   1.0000000
N2   N   0.672851346505702   0.476713237566756   0.110993279311691   1.0000000
N2   N   0.689509560815079   0.630242648902243   0.111418727635016   1.0000000
N2   N   0.679833139955082   0.772519900643341   0.111191358405349   1.0000000
N2   N   0.815725282745242   0.910655423939170   0.110819363083412   1.0000000
N2   N   0.809624772076981   0.048275553911324   0.111012164637500   1.0000000
N2   N   0.808336064557939   0.189798620119629   0.111075747143567   1.0000000
N2   N   0.808835455530488   0.332390625338872   0.110962334758316   1.0000000
N2   N   0.812173553960720   0.475763359143496   0.110970927513483   1.0000000
N2   N   0.819083128814260   0.621090039426421   0.110855168851992   1.0000000
N2   N   0.820306119078830   0.769268913096523   0.110864258957113   1.0000000
S2   S   0.524215284595867   0.476849750012539   0.110906386688716   1.0000000


