data_1
_audit_creation_method   'vasp2cif'
_cell_length_a    17.52789999999977
_cell_length_b    17.52789999999977
_cell_length_c    15.0
_cell_angle_alpha    90.0
_cell_angle_beta    90.0
_cell_angle_gamma    119.99999999999916

_symmetry_space_group_name_H-M    'P 1'
loop_
_atom_site_label
_atom_site_type_symbol
_atom_site_fract_x
_atom_site_fract_y
_atom_site_fract_z
_atom_site_occupancy
B2   B   0.905783399913141   0.953913883673724   0.110799916901570   1.0000000
B2   B   0.904068051593829   0.096028291980109   0.110864612327679   1.0000000
B2   B   0.903503094822184   0.238750145605611   0.110989055246785   1.0000000
B2   B   0.903676911718089   0.381562843116146   0.110915125371559   1.0000000
B2   B   0.905007778440510   0.524511535404618   0.110867423637327   1.0000000
B2   B   0.907227380121121   0.668004051880555   0.110952026808101   1.0000000
B2   B   0.908108014748981   0.812148101608438   0.110800929686822   1.0000000
B2   B   0.048131838846787   0.952182131830700   0.110848724032699   1.0000000
B2   B   0.046331628658755   0.094472127793397   0.110780275219762   1.0000000
B2   B   0.045886628242031   0.237676574026538   0.110858008841848   1.0000000
B2   B   0.046545111201720   0.380765723492887   0.110911102710217   1.0000000
B2   B   0.048064567169682   0.523542113805816   0.110777198404280   1.0000000
B2   B   0.049104840972382   0.666467005215604   0.110816080411780   1.0000000
B2   B   0.049222274086780   0.809550925280208   0.110943128644815   1.0000000
B2   B   0.190670771917290   0.951047935278712   0.110910749577540   1.0000000
B2   B   0.188138875900013   0.092233438328857   0.110765430197449   1.0000000
B2   B   0.186843068931932   0.234961699301601   0.110827826706743   1.0000000
B2   B   0.188479537349837   0.379384310758449   0.110940648311463   1.0000000
B2   B   0.191450281849935   0.522609349102240   0.110826611053695   1.0000000
B2   B   0.191961048965282   0.665546642467369   0.110698566124578   1.0000000
B2   B   0.191615721169631   0.808489914841498   0.110803547894217   1.0000000
B2   B   0.333592196325898   0.951031655251708   0.110905045266058   1.0000000
B2   B   0.332191647653261   0.093058161788104   0.110931327361213   1.0000000
B2   B   0.327318323362810   0.231439153459793   0.111040228313281   1.0000000
B2   B   0.327029989473667   0.375345047924898   0.111180320363164   1.0000000
B2   B   0.335501400973651   0.521076958854195   0.110994225501993   1.0000000
B2   B   0.335387408596404   0.664669361723788   0.110829296292403   1.0000000
B2   B   0.334446783489119   0.808069180003650   0.110813499767316   1.0000000
B2   B   0.476407341764947   0.951972915107425   0.110882019904415   1.0000000
B2   B   0.475532956969499   0.095135943232815   0.110926768692590   1.0000000
B2   B   0.473938345743796   0.237698158590240   0.111243854527455   1.0000000
B2   B   0.463405773287730   0.371739302731148   0.111569505198845   1.0000000
B2   B   0.479081656975489   0.664648074197033   0.111155803367254   1.0000000
B2   B   0.477411688648277   0.808599971188178   0.110951674148384   1.0000000
B2   B   0.619208417105955   0.953483395047262   0.110882459774904   1.0000000
B2   B   0.618369748441686   0.096331690621622   0.110917882664046   1.0000000
B2   B   0.617645736910201   0.239715489342592   0.111108727846629   1.0000000
B2   B   0.616556248355661   0.383699411536590   0.111593544775732   1.0000000
B2   B   0.628613007266527   0.536892590589723   0.111901620794135   1.0000000
B2   B   0.624961188663729   0.673238368799773   0.111540104536957   1.0000000
B2   B   0.620758087021152   0.811663345425151   0.111002558446536   1.0000000
B2   B   0.762427282027660   0.954228831115567   0.110814837104332   1.0000000
B2   B   0.761207055714235   0.096483174155806   0.110955471011969   1.0000000
B2   B   0.760636352345466   0.239326600110226   0.111044646866902   1.0000000
B2   B   0.760398791890368   0.382425569130744   0.111084570873078   1.0000000
B2   B   0.762585095720031   0.526270253257870   0.111312150935725   1.0000000
B2   B   0.768903151755636   0.672958103927430   0.111239923009058   1.0000000
B2   B   0.765317070428814   0.813398428348504   0.110840634246193   1.0000000
N2   N   0.953840216105637   0.906400474947002   0.110797698534649   1.0000000
N2   N   0.951841865887879   0.048380270888020   0.110811126407427   1.0000000
N2   N   0.950960440461188   0.190932299590360   0.110890131143340   1.0000000
N2   N   0.951155329770748   0.333826845241122   0.110938385490386   1.0000000
N2   N   0.952330166907906   0.476641578454428   0.110796975856239   1.0000000
N2   N   0.953801561676548   0.619577930985370   0.110854391691885   1.0000000
N2   N   0.954434122439446   0.763032983793529   0.110894435954625   1.0000000
N2   N   0.095854763968016   0.904394239112050   0.110937607238024   1.0000000
N2   N   0.093889577321243   0.046469472542207   0.110748826030457   1.0000000
N2   N   0.092547623858507   0.189000011716096   0.110762520181545   1.0000000
N2   N   0.093403726906970   0.332664595108426   0.110897900118096   1.0000000
N2   N   0.095588194080425   0.475828381555614   0.110834287185299   1.0000000
N2   N   0.096460376925595   0.618619183986761   0.110698566423722   1.0000000
N2   N   0.096528604812483   0.761528355806599   0.110855694278886   1.0000000
N2   N   0.238567447284964   0.903611984323688   0.110871257961081   1.0000000
N2   N   0.237191545534655   0.045853599879866   0.110828273714914   1.0000000
N2   N   0.233595253478592   0.186205369905589   0.110736979000065   1.0000000
N2   N   0.233057847907446   0.329294299108567   0.110959249295185   1.0000000
N2   N   0.238757122370139   0.474526812224775   0.110909231222295   1.0000000
N2   N   0.239687257643007   0.617836144522485   0.110710908638873   1.0000000
N2   N   0.239242536651075   0.760774550657299   0.110699224613750   1.0000000
N2   N   0.381352306682264   0.903585118451225   0.110866533143988   1.0000000
N2   N   0.380494757451724   0.046364670795137   0.110913242738600   1.0000000
N2   N   0.378724658965864   0.187999786364868   0.111011637565572   1.0000000
N2   N   0.371827222722252   0.324684495104341   0.111364828585110   1.0000000
N2   N   0.377149874497993   0.468075195920613   0.111148301464136   1.0000000
N2   N   0.383339365299025   0.616807535996252   0.110919068358783   1.0000000
N2   N   0.382183462964633   0.760361776783265   0.110851165524872   1.0000000
N2   N   0.524144010823380   0.904454085833906   0.110895161411900   1.0000000
N2   N   0.523308588384840   0.047716701588963   0.110854458126370   1.0000000
N2   N   0.522413599564835   0.191014004259619   0.111049694409340   1.0000000
N2   N   0.520391119860720   0.334345507041472   0.111612929759785   1.0000000
N2   N   0.532204325922477   0.623094407631560   0.111483805868482   1.0000000
N2   N   0.525597217752342   0.761375348590240   0.111052163832481   1.0000000
N2   N   0.667418924083302   0.906714292840714   0.110845184478864   1.0000000
N2   N   0.666120699468006   0.048856288935249   0.110881278956686   1.0000000
N2   N   0.665364960570438   0.191956224793107   0.110998779767712   1.0000000
N2   N   0.664492204106560   0.335641926738540   0.111225261025030   1.0000000
N2   N   0.665954847052225   0.479866169373984   0.111756705056280   1.0000000
N2   N   0.675662235394341   0.628477343305081   0.111869781408984   1.0000000
N2   N   0.670963563728177   0.767188589100578   0.111073755791843   1.0000000
N2   N   0.811232087279033   0.907677555123342   0.110737975389582   1.0000000
N2   N   0.809134576651023   0.049126107085688   0.110862181637567   1.0000000
N2   N   0.808306453264115   0.191662674693635   0.111025294963034   1.0000000
N2   N   0.808057868106058   0.334606910386436   0.110984935060890   1.0000000
N2   N   0.809151077372315   0.477677659707018   0.111010782550781   1.0000000
N2   N   0.812297612984440   0.621500750123303   0.111100302515373   1.0000000
N2   N   0.814126436948942   0.766686924022795   0.110752625605794   1.0000000
Se2   Se   0.503048859003205   0.497336605495832   0.111104322716844   1.0000000


