data_1
_audit_creation_method   'vasp2cif'
_cell_length_a    17.52789999999977
_cell_length_b    17.52789999999977
_cell_length_c    15.0
_cell_angle_alpha    90.0
_cell_angle_beta    90.0
_cell_angle_gamma    119.99999999999916

_symmetry_space_group_name_H-M    'P 1'
loop_
_atom_site_label
_atom_site_type_symbol
_atom_site_fract_x
_atom_site_fract_y
_atom_site_fract_z
_atom_site_occupancy
Al2   Al   0.526344926432748   0.623206975947718   0.111305569313139   1.0000000
B2   B   0.908062686349387   0.955085592750963   0.111003296322314   1.0000000
B2   B   0.904590794167752   0.095388297844289   0.111064299397826   1.0000000
B2   B   0.903862732458653   0.237506083606388   0.110974775326276   1.0000000
B2   B   0.904437403782435   0.380282583732228   0.110925647964163   1.0000000
B2   B   0.906949457807041   0.523842178348460   0.111136675868247   1.0000000
B2   B   0.911066668380580   0.668381935276205   0.111160986252884   1.0000000
B2   B   0.911004779685101   0.813384846594610   0.111050063901204   1.0000000
B2   B   0.049590454234734   0.953412977024342   0.111078097390117   1.0000000
B2   B   0.046978421761989   0.094472330962949   0.110976325496608   1.0000000
B2   B   0.045393038636068   0.236678867582768   0.110845624773571   1.0000000
B2   B   0.045219006323902   0.379875471032022   0.110818478021647   1.0000000
B2   B   0.046382971028398   0.523560005528561   0.110877998557853   1.0000000
B2   B   0.049026469400445   0.667433792886648   0.111025161438795   1.0000000
B2   B   0.050187044231979   0.810849389854029   0.111104650270908   1.0000000
B2   B   0.190949209033514   0.952390847498213   0.110985627104342   1.0000000
B2   B   0.189275489464605   0.093278022894907   0.110944841196501   1.0000000
B2   B   0.185767291789256   0.233524290911240   0.110799189788916   1.0000000
B2   B   0.185636287259893   0.378446916537361   0.111001021670252   1.0000000
B2   B   0.185671506639273   0.523314622006653   0.111049631711118   1.0000000
B2   B   0.187825595531384   0.667448397442570   0.111040110218583   1.0000000
B2   B   0.190614674076944   0.810374869626730   0.110926350348716   1.0000000
B2   B   0.332930562875652   0.952588500634993   0.110937706995994   1.0000000
B2   B   0.332510522972673   0.093347082923474   0.111031423960590   1.0000000
B2   B   0.329030066608911   0.232264680718974   0.111099794437410   1.0000000
B2   B   0.322931840541452   0.371947367369397   0.111729354513065   1.0000000
B2   B   0.324306860813012   0.522324825014155   0.111693482261388   1.0000000
B2   B   0.326116940185657   0.668098940282060   0.111492482360481   1.0000000
B2   B   0.331788610226177   0.811126842683436   0.111089289518606   1.0000000
B2   B   0.475664757616464   0.954555353527953   0.111009222099712   1.0000000
B2   B   0.475910870599170   0.093725178019099   0.110970579591302   1.0000000
B2   B   0.475402255929072   0.231715077451192   0.111124999965294   1.0000000
B2   B   0.468460704620698   0.360573849188518   0.111319308930180   1.0000000
B2   B   0.449991815628400   0.506710606127498   0.110043928591248   1.0000000
B2   B   0.463322339909109   0.679161123246260   0.110041665266991   1.0000000
B2   B   0.474603879822871   0.816110841612047   0.111399825555121   1.0000000
B2   B   0.619300129492327   0.953880110387229   0.111042086322007   1.0000000
B2   B   0.619258030043948   0.095319155467271   0.110889087077010   1.0000000
B2   B   0.619641780750133   0.236836536850640   0.110983151393885   1.0000000
B2   B   0.620975103894541   0.379115418545168   0.110973560636054   1.0000000
B2   B   0.639484589879398   0.534247524602494   0.110585483583906   1.0000000
B2   B   0.645844827589499   0.678716399576323   0.112275696876271   1.0000000
B2   B   0.620175578458539   0.811951140750201   0.111120243082362   1.0000000
B2   B   0.763297886437008   0.954034039274879   0.110953893365205   1.0000000
B2   B   0.761999889751602   0.095557558821162   0.110991990384681   1.0000000
B2   B   0.762069238749993   0.237600729669895   0.110961960440597   1.0000000
B2   B   0.763292519867762   0.380221942247160   0.111028922950047   1.0000000
B2   B   0.768133945420483   0.524372337079683   0.110957768150764   1.0000000
B2   B   0.777951991311996   0.673405133019986   0.110607853710097   1.0000000
B2   B   0.770375717827874   0.816446885584577   0.110770664107664   1.0000000
N2   N   0.955895938302016   0.907589795784663   0.111083525128358   1.0000000
N2   N   0.953115880688157   0.048863536634981   0.111081963903111   1.0000000
N2   N   0.951026802680996   0.189910350248935   0.110975353414761   1.0000000
N2   N   0.950871606836814   0.332260622494707   0.110852537814764   1.0000000
N2   N   0.952270124125389   0.475247811807629   0.110945852752603   1.0000000
N2   N   0.955433069667446   0.619065231766534   0.111177329676175   1.0000000
N2   N   0.956440448955584   0.763653334938833   0.111175389077918   1.0000000
N2   N   0.096664344207398   0.905553537489658   0.111038558634782   1.0000000
N2   N   0.095156709473453   0.047445405823060   0.110991129082818   1.0000000
N2   N   0.092094711188363   0.188252992496750   0.110763140008246   1.0000000
N2   N   0.091519175340708   0.331395429161118   0.110779431268101   1.0000000
N2   N   0.091736007469532   0.474880018159441   0.110781433756815   1.0000000
N2   N   0.093961594000233   0.618758770141885   0.110879499145342   1.0000000
N2   N   0.096323654080949   0.762527320141622   0.110976423605580   1.0000000
N2   N   0.238213642050062   0.905139962080758   0.110887153851835   1.0000000
N2   N   0.237749984159450   0.046759816772121   0.110989847328730   1.0000000
N2   N   0.234777231619471   0.186997046716403   0.110816964317988   1.0000000
N2   N   0.229811985642756   0.326845424700290   0.111007618095756   1.0000000
N2   N   0.230438930715310   0.474002021073932   0.111226009334116   1.0000000
N2   N   0.232301379098201   0.618798576174675   0.111242530566056   1.0000000
N2   N   0.236880472406717   0.762658306140667   0.110942502504064   1.0000000
N2   N   0.380483209416908   0.906060477561509   0.110940842154500   1.0000000
N2   N   0.380816141185329   0.047024128373569   0.110978450902796   1.0000000
N2   N   0.379809501024428   0.187415740320333   0.111036889905372   1.0000000
N2   N   0.374667430962945   0.325802602644909   0.111483568831108   1.0000000
N2   N   0.360198940394503   0.464092656997797   0.112236001244165   1.0000000
N2   N   0.370022779896453   0.619742540002301   0.111443279974463   1.0000000
N2   N   0.378405649217429   0.764275384339579   0.111358704256475   1.0000000
N2   N   0.524028752767904   0.909603312292322   0.111182887074432   1.0000000
N2   N   0.524235719096184   0.048382499063207   0.110852891616457   1.0000000
N2   N   0.524428642987485   0.187433129193880   0.110995984434443   1.0000000
N2   N   0.524585557594488   0.325048756617685   0.111221590881150   1.0000000
N2   N   0.522820570584474   0.771986576351979   0.111210839851463   1.0000000
N2   N   0.667891818744871   0.906988734109287   0.111019285895795   1.0000000
N2   N   0.667186537012275   0.048538253543569   0.110896949306202   1.0000000
N2   N   0.667259192004254   0.190069855870031   0.110905039373307   1.0000000
N2   N   0.668139373402630   0.332045879480850   0.110966876659034   1.0000000
N2   N   0.673160523344347   0.475453368117360   0.110734778886650   1.0000000
N2   N   0.686878289826945   0.627010925614470   0.110478861194489   1.0000000
N2   N   0.677337419047152   0.771327964675492   0.111102968386342   1.0000000
N2   N   0.814443571161341   0.909872353040924   0.110786469392908   1.0000000
N2   N   0.809884060630010   0.048595891451895   0.111017098648356   1.0000000
N2   N   0.809266443045035   0.190228109670661   0.110960729548471   1.0000000
N2   N   0.809795015360805   0.332422162234315   0.110944343657062   1.0000000
N2   N   0.812670726852373   0.475310992745021   0.111121318018045   1.0000000
N2   N   0.818208387470355   0.620214046440352   0.110924978612759   1.0000000
N2   N   0.818123662072786   0.767689932495342   0.110783913215694   1.0000000
S2   S   0.523042092179892   0.472747805730268   0.110540416348234   1.0000000


