data_1
_audit_creation_method   'vasp2cif'
_cell_length_a    17.52789999999977
_cell_length_b    17.52789999999977
_cell_length_c    15.0
_cell_angle_alpha    90.0
_cell_angle_beta    90.0
_cell_angle_gamma    119.99999999999916

_symmetry_space_group_name_H-M    'P 1'
loop_
_atom_site_label
_atom_site_type_symbol
_atom_site_fract_x
_atom_site_fract_y
_atom_site_fract_z
_atom_site_occupancy
B2   B   0.902772207143557   0.950163593358535   0.097699284006118   1.0000000
B2   B   0.903576640821804   0.093206315887764   0.102079724084902   1.0000000
B2   B   0.904266638408929   0.236358055048820   0.105137212809261   1.0000000
B2   B   0.904657583766689   0.379554663601362   0.106953924985478   1.0000000
B2   B   0.905599143782832   0.523056898750197   0.105890697348633   1.0000000
B2   B   0.905769206639993   0.666411059269405   0.101237365488980   1.0000000
B2   B   0.904399503023603   0.808931948168695   0.095190127699261   1.0000000
B2   B   0.047653227594510   0.952829119761283   0.099112379780720   1.0000000
B2   B   0.047988429595339   0.095766488985132   0.099513761451921   1.0000000
B2   B   0.047854309640577   0.237898787297882   0.100216144874002   1.0000000
B2   B   0.047501582602236   0.380227575648994   0.102096044835928   1.0000000
B2   B   0.047378919327509   0.523265058690774   0.104345763583830   1.0000000
B2   B   0.047658220550858   0.666719532024110   0.103877589145499   1.0000000
B2   B   0.047803121660123   0.809941966752375   0.100967913703332   1.0000000
B2   B   0.190790990479609   0.953414523539819   0.106265073876026   1.0000000
B2   B   0.191406993376430   0.096987781891232   0.103850523338399   1.0000000
B2   B   0.193520852494884   0.241958442346524   0.101198981848949   1.0000000
B2   B   0.191506008697256   0.382268229455272   0.099468229764259   1.0000000
B2   B   0.189664267640732   0.523905098771079   0.104708599820777   1.0000000
B2   B   0.189288614894895   0.666847362993899   0.108512670071630   1.0000000
B2   B   0.190291808050584   0.810090206226888   0.108422848348341   1.0000000
B2   B   0.333251904355484   0.952846080372120   0.115043743825546   1.0000000
B2   B   0.333917428548400   0.096583111366292   0.114016798540822   1.0000000
B2   B   0.334685614529790   0.240883594171385   0.112432214675877   1.0000000
B2   B   0.340861279340946   0.391722846620452   0.105083263582625   1.0000000
B2   B   0.332620869493926   0.525604322462349   0.107305555686754   1.0000000
B2   B   0.330335404235789   0.666947346223978   0.117987778177999   1.0000000
B2   B   0.332466910960219   0.809584760647228   0.117943682440787   1.0000000
B2   B   0.475596046380558   0.950620461984748   0.120399058931901   1.0000000
B2   B   0.476259386489147   0.094776045217391   0.119871173902439   1.0000000
B2   B   0.476799491204225   0.238598319384356   0.125501227921483   1.0000000
B2   B   0.473344004402386   0.377930840277638   0.141535613834900   1.0000000
B2   B   0.490837585696735   0.571383198942717   0.122311265096362   1.0000000
B2   B   0.468494440059184   0.658321497372243   0.139753446223255   1.0000000
B2   B   0.474490041906126   0.805805523190438   0.126566270965353   1.0000000
B2   B   0.617468572196348   0.948465872632851   0.116938785647779   1.0000000
B2   B   0.618572959587457   0.093025916330539   0.117927030437363   1.0000000
B2   B   0.619332035795322   0.236927620076392   0.122193379094873   1.0000000
B2   B   0.620739216244506   0.380763685934977   0.131957173638313   1.0000000
B2   B   0.631129777938315   0.529419576585144   0.135695082934075   1.0000000
B2   B   0.610687054630659   0.653659597874881   0.093851139266107   1.0000000
B2   B   0.614342863259969   0.802005819150394   0.113663778981990   1.0000000
B2   B   0.758996688250828   0.948082472150557   0.104599709286023   1.0000000
B2   B   0.760751095802076   0.092384297341254   0.109951272055205   1.0000000
B2   B   0.761629703929459   0.236118775441721   0.113208341851690   1.0000000
B2   B   0.762456758153381   0.379665451355358   0.115746701390841   1.0000000
B2   B   0.764690163032934   0.523318537872605   0.113377301405893   1.0000000
B2   B   0.763750245775028   0.665973984577031   0.099497026860920   1.0000000
B2   B   0.756896524846751   0.803824466419106   0.095562265852054   1.0000000
N2   N   0.951973865615130   0.904152955380763   0.096176564348519   1.0000000
N2   N   0.951719286176338   0.046215223582078   0.099319109843171   1.0000000
N2   N   0.951990054663401   0.188922098084184   0.102259296197347   1.0000000
N2   N   0.951999858876034   0.331840727222753   0.104442177869698   1.0000000
N2   N   0.952283972386505   0.474994907229117   0.105275553273417   1.0000000
N2   N   0.952674358071884   0.618455704487316   0.103196720809273   1.0000000
N2   N   0.952465132389663   0.761678379477973   0.097932523092837   1.0000000
N2   N   0.095474407601646   0.905423310024059   0.101518851884581   1.0000000
N2   N   0.095884605465734   0.048442618363315   0.100182849225780   1.0000000
N2   N   0.096982446673117   0.191822299787125   0.099739274597719   1.0000000
N2   N   0.095610824563537   0.333148076061807   0.099650012445112   1.0000000
N2   N   0.094518637962162   0.475533788358791   0.103226051491540   1.0000000
N2   N   0.094413608073866   0.618731049086385   0.105086215300395   1.0000000
N2   N   0.095128753463618   0.762195554209946   0.104072772000757   1.0000000
N2   N   0.238092961562990   0.905559340397468   0.109934523264706   1.0000000
N2   N   0.238803135198006   0.049081214035661   0.107706149258584   1.0000000
N2   N   0.239937981008035   0.192915611514459   0.104342387146919   1.0000000
N2   N   0.242932457205943   0.338368043372843   0.100216944401348   1.0000000
N2   N   0.237404057448495   0.476814790454876   0.102015300451975   1.0000000
N2   N   0.235934711141358   0.619077510561730   0.109144016838393   1.0000000
N2   N   0.237345195197450   0.762223801479588   0.111643563386449   1.0000000
N2   N   0.380391007282639   0.904782150658571   0.118683732537081   1.0000000
N2   N   0.381091709708966   0.048359333271903   0.116733001524542   1.0000000
N2   N   0.381915779949758   0.192486683438795   0.118133025387203   1.0000000
N2   N   0.383303169800467   0.337424685608320   0.117731255928067   1.0000000
N2   N   0.389213958263709   0.488305256672913   0.100628530001360   1.0000000
N2   N   0.376000790208629   0.619075076851490   0.122495315005607   1.0000000
N2   N   0.379268047423754   0.761591588327615   0.123364482917701   1.0000000
N2   N   0.522441318475246   0.901755081201665   0.122111675147530   1.0000000
N2   N   0.523365723877137   0.046328017007968   0.119834813455635   1.0000000
N2   N   0.524052194767928   0.190473255308312   0.123063269580644   1.0000000
N2   N   0.524740684657619   0.334585040018751   0.136304676299983   1.0000000
N2   N   0.520442519379082   0.755423934412619   0.132098547642333   1.0000000
N2   N   0.663567301332456   0.899023581421016   0.111482366731836   1.0000000
N2   N   0.665501576801199   0.044501845637493   0.115106497766554   1.0000000
N2   N   0.666352651517673   0.188746134077642   0.117971232737128   1.0000000
N2   N   0.667119600398920   0.332508455083475   0.124025337806482   1.0000000
N2   N   0.670568406341818   0.476054146573667   0.128898772288073   1.0000000
N2   N   0.668920456218962   0.617101070846885   0.105498451958828   1.0000000
N2   N   0.659328382960838   0.752081206139213   0.096887437103489   1.0000000
N2   N   0.806323925891657   0.900301163105425   0.098606291151661   1.0000000
N2   N   0.807808360185782   0.044259328495081   0.105282932523636   1.0000000
N2   N   0.808788050239975   0.188141214515628   0.109215951526589   1.0000000
N2   N   0.809326253744698   0.331617175322862   0.111688410667077   1.0000000
N2   N   0.810614117357117   0.474898011409059   0.110692829409339   1.0000000
N2   N   0.810842530207597   0.618097052309479   0.104188690382554   1.0000000
N2   N   0.808745761776451   0.760176763260144   0.092938846655224   1.0000000
S2   S   0.525916440370138   0.492294591591561   0.191531979036855   1.0000000


