data_1
_audit_creation_method   'vasp2cif'
_cell_length_a    17.52789999999977
_cell_length_b    17.52789999999977
_cell_length_c    15.0
_cell_angle_alpha    90.0
_cell_angle_beta    90.0
_cell_angle_gamma    119.99999999999916

_symmetry_space_group_name_H-M    'P 1'
loop_
_atom_site_label
_atom_site_type_symbol
_atom_site_fract_x
_atom_site_fract_y
_atom_site_fract_z
_atom_site_occupancy
B2   B   0.905633343786525   0.952691395178971   0.101012673889241   1.0000000
B2   B   0.903850720124971   0.094098422072711   0.106746640991342   1.0000000
B2   B   0.903374208172230   0.236620021726969   0.108767076469512   1.0000000
B2   B   0.903549173779866   0.379715745013794   0.107410600979059   1.0000000
B2   B   0.905270168062809   0.523295767140017   0.102601255766787   1.0000000
B2   B   0.907367696080943   0.667245874334696   0.096963645614859   1.0000000
B2   B   0.907795312252548   0.811196157519392   0.095414125801167   1.0000000
B2   B   0.048946769759828   0.953307332573725   0.102418488604367   1.0000000
B2   B   0.047985747311950   0.095646486130590   0.105648249425023   1.0000000
B2   B   0.046440957073240   0.237190372083873   0.107692693787010   1.0000000
B2   B   0.045777194717309   0.379717238988308   0.107111727651497   1.0000000
B2   B   0.046249608184560   0.523108865073240   0.105753409092454   1.0000000
B2   B   0.048043399712385   0.666761445292071   0.103294257233974   1.0000000
B2   B   0.049082507749746   0.810255903472651   0.101156505219090   1.0000000
B2   B   0.191270941797333   0.952902501706279   0.106778326514437   1.0000000
B2   B   0.190806016751579   0.095667739126022   0.107014009350321   1.0000000
B2   B   0.190869256844133   0.239200556958778   0.108629527762980   1.0000000
B2   B   0.188432327008742   0.380087171619312   0.107355445175865   1.0000000
B2   B   0.187169094717201   0.523073122489933   0.105184312204658   1.0000000
B2   B   0.189083710561519   0.666403378121767   0.106449077712897   1.0000000
B2   B   0.190830017327513   0.809714146368986   0.106962553835268   1.0000000
B2   B   0.333574470733088   0.952123471320295   0.109793346566890   1.0000000
B2   B   0.333681315694367   0.095389375809162   0.111449555638908   1.0000000
B2   B   0.332396352351772   0.237755568835239   0.114287138912679   1.0000000
B2   B   0.334449394501117   0.384453165125343   0.118859550561529   1.0000000
B2   B   0.326810119216122   0.523060689780002   0.107453554618087   1.0000000
B2   B   0.330107765386393   0.666148708875929   0.105503924135850   1.0000000
B2   B   0.332977499247600   0.808970924172516   0.108303666268209   1.0000000
B2   B   0.475836623674312   0.950095192918510   0.109787713672852   1.0000000
B2   B   0.476105483193545   0.094062169105395   0.112576981495232   1.0000000
B2   B   0.476206745193063   0.237288885554909   0.121135336410273   1.0000000
B2   B   0.469241635620859   0.371886833173026   0.151049397198118   1.0000000
B2   B   0.469593926182558   0.554428296069971   0.134083173562123   1.0000000
B2   B   0.469829874232749   0.656878823439369   0.111045407771624   1.0000000
B2   B   0.475124628003548   0.805033616022736   0.108145087362700   1.0000000
B2   B   0.617901393252809   0.949627324624570   0.108306092827432   1.0000000
B2   B   0.618295415299970   0.093496472711524   0.110931541209413   1.0000000
B2   B   0.618621179715259   0.237274689095264   0.115823327956444   1.0000000
B2   B   0.619616641598544   0.381340157767361   0.129671361833602   1.0000000
B2   B   0.638788169940235   0.534120066545563   0.153664553804246   1.0000000
B2   B   0.634388964309428   0.672646712635032   0.138941751396436   1.0000000
B2   B   0.617190451213950   0.805740157305683   0.109821768191390   1.0000000
B2   B   0.760879524780507   0.950583300806189   0.105349437404161   1.0000000
B2   B   0.760674736236613   0.093382034525256   0.108941178091185   1.0000000
B2   B   0.760852499226005   0.236622400486840   0.110695353656458   1.0000000
B2   B   0.761431995865316   0.380070672188081   0.110861620531892   1.0000000
B2   B   0.765000622268056   0.524006301004482   0.108405928126713   1.0000000
B2   B   0.769073342159584   0.669789207687131   0.101651953487823   1.0000000
B2   B   0.764201365115823   0.810022651492715   0.101303202981474   1.0000000
N2   N   0.953987732242842   0.905851926324474   0.098775580584040   1.0000000
N2   N   0.952519133651366   0.047547247257531   0.104651332887328   1.0000000
N2   N   0.951137051863482   0.189174470363955   0.108143799801848   1.0000000
N2   N   0.950702108965138   0.331811663546185   0.108030609462789   1.0000000
N2   N   0.951477084327820   0.475031753574887   0.105274748770493   1.0000000
N2   N   0.953329287188492   0.618755116861195   0.100138473289620   1.0000000
N2   N   0.954278485442301   0.762633347274847   0.096130892049220   1.0000000
N2   N   0.096230207594864   0.905419747491916   0.103506638397204   1.0000000
N2   N   0.095765675788347   0.048183424144057   0.105111877189386   1.0000000
N2   N   0.095276202129844   0.190805495342895   0.107276385629286   1.0000000
N2   N   0.093356300678936   0.332084854266078   0.107319602246685   1.0000000
N2   N   0.092616599404277   0.474917984240045   0.106275790345499   1.0000000
N2   N   0.094238104320172   0.618473191776828   0.105721217040864   1.0000000
N2   N   0.095807429929510   0.762098737041225   0.104132116903137   1.0000000
N2   N   0.238469759823642   0.904926432111066   0.108242145293593   1.0000000
N2   N   0.238543770319971   0.048066120463156   0.108186567084711   1.0000000
N2   N   0.237749787327826   0.190681282711378   0.108238767423886   1.0000000
N2   N   0.238546029908587   0.334811351240422   0.110385773677531   1.0000000
N2   N   0.233248571283086   0.474698734519070   0.104901899474358   1.0000000
N2   N   0.235198278866279   0.618250552727332   0.105491124441794   1.0000000
N2   N   0.237714608239321   0.761688127294846   0.107702143456358   1.0000000
N2   N   0.380782299102755   0.904021435820020   0.109584115062022   1.0000000
N2   N   0.381034651974734   0.047311561251826   0.111330259221998   1.0000000
N2   N   0.380925683061772   0.190558351257897   0.115573824210478   1.0000000
N2   N   0.378951336353223   0.332468630627833   0.124193741505359   1.0000000
N2   N   0.378758235701668   0.481141851188623   0.117881311329330   1.0000000
N2   N   0.375355860315004   0.617835091852437   0.105352112068116   1.0000000
N2   N   0.379941911951776   0.760889497029026   0.107343054430109   1.0000000
N2   N   0.522858026364442   0.901223604173871   0.108806705852506   1.0000000
N2   N   0.523280323456649   0.045720278190701   0.111013064880741   1.0000000
N2   N   0.523555935183172   0.189439113998488   0.115995536708843   1.0000000
N2   N   0.523307442021893   0.331947782290224   0.135098268369820   1.0000000
N2   N   0.521841429509131   0.754635397873498   0.109202683204062   1.0000000
N2   N   0.665276536289876   0.901458620973629   0.107012838366872   1.0000000
N2   N   0.665502057943691   0.045272224125719   0.109287367339478   1.0000000
N2   N   0.665762909671899   0.189073157248185   0.112279387602976   1.0000000
N2   N   0.666158893196495   0.333003643610487   0.118248580829726   1.0000000
N2   N   0.672161433081002   0.477879060318107   0.128682002509317   1.0000000
N2   N   0.677756715502763   0.624231989245494   0.124871502020381   1.0000000
N2   N   0.668341811337646   0.760920458063052   0.113103818333599   1.0000000
N2   N   0.810064784088464   0.904491721180377   0.100979839877985   1.0000000
N2   N   0.808398300790969   0.045818106684067   0.107216486110219   1.0000000
N2   N   0.808179285289261   0.188720597068207   0.109688769458283   1.0000000
N2   N   0.808378555874849   0.331950101128055   0.109348421186878   1.0000000
N2   N   0.810464356771947   0.475311702400088   0.104638719594004   1.0000000
N2   N   0.812822582687887   0.619369088348722   0.098326132984025   1.0000000
N2   N   0.813018458875795   0.763882008686210   0.094686679341972   1.0000000
Ge2   Ge   0.522521035433271   0.492351428906575   0.207353937073661   1.0000000


