data_1
_audit_creation_method   'vasp2cif'
_cell_length_a    17.52789999999977
_cell_length_b    17.52789999999977
_cell_length_c    15.0
_cell_angle_alpha    90.0
_cell_angle_beta    90.0
_cell_angle_gamma    119.99999999999916

_symmetry_space_group_name_H-M    'P 1'
loop_
_atom_site_label
_atom_site_type_symbol
_atom_site_fract_x
_atom_site_fract_y
_atom_site_fract_z
_atom_site_occupancy
B2   B   0.904776823226360   0.952370955370485   0.115855488204062   1.0000000
B2   B   0.904780257240375   0.095222682228151   0.115935797827725   1.0000000
B2   B   0.904763682798441   0.238095022032332   0.115815420617516   1.0000000
B2   B   0.904754575269169   0.380965687834556   0.115829243776590   1.0000000
B2   B   0.904785648269048   0.523809392382498   0.115256409299743   1.0000000
B2   B   0.904796583555364   0.666671909530070   0.113994842911001   1.0000000
B2   B   0.904803090922649   0.809556811401574   0.115145246600013   1.0000000
B2   B   0.047620236124567   0.952377866966897   0.116415029102584   1.0000000
B2   B   0.047629757938079   0.095224173532665   0.115855304997520   1.0000000
B2   B   0.047642451262973   0.238090653484772   0.115226299971793   1.0000000
B2   B   0.047621484920679   0.380956190258524   0.115614535044399   1.0000000
B2   B   0.047609104857743   0.523810674561469   0.116199304690883   1.0000000
B2   B   0.047622259880820   0.666670488660667   0.116118770786792   1.0000000
B2   B   0.047630965539129   0.809534922351435   0.116190998014897   1.0000000
B2   B   0.190462968169676   0.952361867505160   0.116160851757638   1.0000000
B2   B   0.190443115701652   0.095191749700671   0.115134905634361   1.0000000
B2   B   0.190457133355408   0.238072066806628   0.113074013047461   1.0000000
B2   B   0.190458549662735   0.380942781816524   0.112964419666605   1.0000000
B2   B   0.190437786641847   0.523799770297607   0.114842492843424   1.0000000
B2   B   0.190452811538293   0.666672985644327   0.115889211190282   1.0000000
B2   B   0.190467169957918   0.809527569607260   0.116355323571858   1.0000000
B2   B   0.333329077228933   0.952375140771925   0.116060439314530   1.0000000
B2   B   0.333326120905552   0.095201170891647   0.113967583511284   1.0000000
B2   B   0.333165071300909   0.237869879545991   0.109486146346810   1.0000000
B2   B   0.333044508934047   0.380798446440174   0.104115301883092   1.0000000
B2   B   0.333164209192486   0.523850928853929   0.109304696005766   1.0000000
B2   B   0.333318046235987   0.666684382702267   0.113642573105022   1.0000000
B2   B   0.333326129188618   0.809546796989038   0.115875674746742   1.0000000
B2   B   0.476192538210025   0.952394361086075   0.116177314745061   1.0000000
B2   B   0.476193294301859   0.095217169822076   0.115220668583276   1.0000000
B2   B   0.476135995036822   0.237883241654586   0.109561013663226   1.0000000
B2   B   0.474047793647751   0.376664803218570   0.084445890970264   1.0000000
B2   B   0.474058434293243   0.525944474362382   0.084449057286043   1.0000000
B2   B   0.476152266652402   0.666839512201394   0.109287466282830   1.0000000
B2   B   0.476201301658505   0.809566095149238   0.114835492919987   1.0000000
B2   B   0.619047721403473   0.952381921035075   0.115608996811527   1.0000000
B2   B   0.619036410009252   0.095248751120669   0.115818826574429   1.0000000
B2   B   0.619031256239157   0.238091601346650   0.113250222058296   1.0000000
B2   B   0.619186863449379   0.380814362192823   0.104245088007076   1.0000000
B2   B   0.623338361806506   0.525953653859711   0.084426340972232   1.0000000
B2   B   0.619206962027026   0.666963531163791   0.104073615735146   1.0000000
B2   B   0.619057851626961   0.809548338263757   0.112933522621509   1.0000000
B2   B   0.761911312277677   0.952359794453344   0.115222651588339   1.0000000
B2   B   0.761908304027469   0.095238918388923   0.115820987546948   1.0000000
B2   B   0.761891322846296   0.238112279216879   0.115265891483631   1.0000000
B2   B   0.761911503223252   0.380972045994913   0.113263996144151   1.0000000
B2   B   0.762119368710297   0.523864932881393   0.109560180231046   1.0000000
B2   B   0.762136830231033   0.666839438285911   0.109459478390592   1.0000000
B2   B   0.761928654409597   0.809545469620831   0.113051783048407   1.0000000
Ga2   Ga   0.523790429974546   0.476205844977623   0.971048217432112   1.0000000
N2   N   0.952383310862226   0.904760413467915   0.116151810833982   1.0000000
N2   N   0.952396023545146   0.047607490682118   0.116105361168110   1.0000000
N2   N   0.952398828127633   0.190478350168313   0.115818268847746   1.0000000
N2   N   0.952378119803654   0.333338604080514   0.115938438986037   1.0000000
N2   N   0.952369326966399   0.476185500163687   0.116144485726469   1.0000000
N2   N   0.952371459790888   0.619033234521136   0.115358681624669   1.0000000
N2   N   0.952375133132502   0.761898137280437   0.115318347334693   1.0000000
N2   N   0.095238775466011   0.904760491183598   0.116528680838405   1.0000000
N2   N   0.095240337119810   0.047615707422685   0.116139101870979   1.0000000
N2   N   0.095279346627304   0.190492677886806   0.115015354087296   1.0000000
N2   N   0.095276819738636   0.333339178644540   0.114865994066466   1.0000000
N2   N   0.095230178809423   0.476182863272414   0.115824086343031   1.0000000
N2   N   0.095227503481206   0.619041550798868   0.116293947493519   1.0000000
N2   N   0.095242168516391   0.761908180792222   0.116332362290554   1.0000000
N2   N   0.238091333095439   0.904754104957929   0.116278707848872   1.0000000
N2   N   0.238098877024452   0.047615873078475   0.115291621684608   1.0000000
N2   N   0.238072864171353   0.190462853336627   0.113379688601111   1.0000000
N2   N   0.238185823687550   0.333370676222363   0.110741004169915   1.0000000
N2   N   0.238067932181015   0.476164546090385   0.113182059653869   1.0000000
N2   N   0.238083952171456   0.619037899243182   0.114973527243493   1.0000000
N2   N   0.238087482321035   0.761913703054090   0.116096628100460   1.0000000
N2   N   0.380961011590771   0.904774019527463   0.116252450217331   1.0000000
N2   N   0.380970108274103   0.047627979132670   0.115310577108333   1.0000000
N2   N   0.380926395910886   0.190419033642874   0.110725752820932   1.0000000
N2   N   0.380707858512374   0.333138647521434   0.101940121786645   1.0000000
N2   N   0.380702587421737   0.476119022352508   0.101910172080420   1.0000000
N2   N   0.380931332595525   0.619075261733255   0.110434205105560   1.0000000
N2   N   0.380962292267478   0.761919845230484   0.114972732649075   1.0000000
N2   N   0.523822166979168   0.904776611682160   0.115822251743509   1.0000000
N2   N   0.523818616205069   0.047633520276246   0.116119901053920   1.0000000
N2   N   0.523818526182768   0.190482553530528   0.113552653895137   1.0000000
N2   N   0.523870142522426   0.333151187867621   0.101996097146075   1.0000000
N2   N   0.523884430117811   0.619302643649687   0.101886455213037   1.0000000
N2   N   0.523837040308681   0.761936419192361   0.113159195913906   1.0000000
N2   N   0.666662922966466   0.904727874428372   0.114852450548077   1.0000000
N2   N   0.666662083027480   0.047624332340995   0.115936415476580   1.0000000
N2   N   0.666644634715782   0.190512743319211   0.115083254513334   1.0000000
N2   N   0.666613236822232   0.333389490036052   0.110967006786113   1.0000000
N2   N   0.666853131149027   0.476132201828475   0.101984186517185   1.0000000
N2   N   0.666866651380781   0.619299898251204   0.101901084232814   1.0000000
N2   N   0.666630698020131   0.761821880440368   0.110696725301626   1.0000000
N2   N   0.809505833538621   0.904722097135627   0.115004168890087   1.0000000
N2   N   0.809525139279108   0.047603245446626   0.115826276035470   1.0000000
N2   N   0.809514895850614   0.190487581079681   0.115738222974665   1.0000000
N2   N   0.809487046991073   0.333355147557959   0.115095452820414   1.0000000
N2   N   0.809519212870297   0.476183767219899   0.113576293985826   1.0000000
N2   N   0.809580652883704   0.619073254577466   0.110718803104561   1.0000000
N2   N   0.809535225384367   0.761928062479608   0.113365905701570   1.0000000


