data_1
_audit_creation_method   'vasp2cif'
_cell_length_a    17.52789999999977
_cell_length_b    17.52789999999977
_cell_length_c    15.0
_cell_angle_alpha    90.0
_cell_angle_beta    90.0
_cell_angle_gamma    119.99999999999916

_symmetry_space_group_name_H-M    'P 1'
loop_
_atom_site_label
_atom_site_type_symbol
_atom_site_fract_x
_atom_site_fract_y
_atom_site_fract_z
_atom_site_occupancy
B2   B   0.905583956314510   0.953793872913726   0.111016921387814   1.0000000
B2   B   0.904038555952418   0.095963465243578   0.111016825304703   1.0000000
B2   B   0.903585889572911   0.238775023064231   0.111050750919619   1.0000000
B2   B   0.903825463348566   0.381672024445209   0.110988903575800   1.0000000
B2   B   0.905115353253879   0.524682051289298   0.110998269539255   1.0000000
B2   B   0.906990341847280   0.668083974170650   0.111074430096717   1.0000000
B2   B   0.907553871817953   0.811858862207915   0.111051588130501   1.0000000
B2   B   0.047829008890093   0.952173012305910   0.110993659626255   1.0000000
B2   B   0.046208148282277   0.094418064881486   0.111016921387814   1.0000000
B2   B   0.045817118302841   0.237730491506480   0.111009796675809   1.0000000
B2   B   0.046400564829655   0.381030160928901   0.110999312644440   1.0000000
B2   B   0.047755041611975   0.523933222593693   0.110999383351727   1.0000000
B2   B   0.048710971715453   0.666813971280555   0.111039999546546   1.0000000
B2   B   0.048803257571104   0.809698239897110   0.111025771223552   1.0000000
B2   B   0.190303781298894   0.951198763624900   0.111025771223552   1.0000000
B2   B   0.188143158988088   0.092448149378044   0.111051588130501   1.0000000
B2   B   0.186648242215106   0.234897918268024   0.111016917483408   1.0000000
B2   B   0.188038807233051   0.379720536296929   0.111013598622608   1.0000000
B2   B   0.190625375113724   0.523259341847047   0.111048829961976   1.0000000
B2   B   0.191278054995134   0.666177780503754   0.111062509298883   1.0000000
B2   B   0.191109447073982   0.808892574122022   0.110996410989398   1.0000000
B2   B   0.333188049916443   0.951291049480551   0.111039999546546   1.0000000
B2   B   0.331918047026350   0.093011679348716   0.111074430096717   1.0000000
B2   B   0.327698237545651   0.231735147791681   0.111012715435716   1.0000000
B2   B   0.326170134889668   0.374920162845338   0.110978993200028   1.0000000
B2   B   0.333666407701454   0.522292614224193   0.111041216178193   1.0000000
B2   B   0.334299514774429   0.665702506422569   0.111099959557313   1.0000000
B2   B   0.333824240693245   0.808723966200868   0.111062509298883   1.0000000
B2   B   0.476068798603307   0.952246979584030   0.110999383351727   1.0000000
B2   B   0.475319969907701   0.094886667942119   0.110998269539255   1.0000000
B2   B   0.473825513558312   0.236727959310772   0.110999920904311   1.0000000
B2   B   0.464482918223566   0.369705315790793   0.110949361720660   1.0000000
B2   B   0.477709406972805   0.666335613495545   0.111041216178193   1.0000000
B2   B   0.476742679349953   0.809376646082281   0.111048829961976   1.0000000
B2   B   0.618971860267102   0.953601456366349   0.110999312644440   1.0000000
B2   B   0.618329996750795   0.096176557847432   0.110988903575800   1.0000000
B2   B   0.617776022278025   0.239134294642492   0.111019741038214   1.0000000
B2   B   0.617360899061773   0.382641122134230   0.110989661640689   1.0000000
B2   B   0.630296705405211   0.535519102973432   0.110949361720660   1.0000000
B2   B   0.625081858350666   0.673831886307330   0.110978993200028   1.0000000
B2   B   0.620281484899075   0.811963213962951   0.111013598622608   1.0000000
B2   B   0.762271529689523   0.954184902893162   0.111009796675809   1.0000000
B2   B   0.761226998131773   0.096416131623085   0.111050750919619   1.0000000
B2   B   0.760813945092764   0.239188076103239   0.111059119362879   1.0000000
B2   B   0.760867726553511   0.382225998917977   0.111019741038214   1.0000000
B2   B   0.763274061885232   0.526176507638687   0.110999920904311   1.0000000
B2   B   0.768266873404323   0.672303783651348   0.111012715435716   1.0000000
B2   B   0.765104102927979   0.813353778980898   0.111016917483408   1.0000000
N2   N   0.953307429855348   0.906075370364215   0.110995136267146   1.0000000
N2   N   0.951744487015534   0.048256914902473   0.110996243973940   1.0000000
N2   N   0.951075394463343   0.190959219831983   0.111014334000866   1.0000000
N2   N   0.951240921397495   0.333938385187113   0.110985836547221   1.0000000
N2   N   0.952167351850987   0.476775642319281   0.110953219752420   1.0000000
N2   N   0.953302231397419   0.619645482389477   0.111032903979911   1.0000000
N2   N   0.953772618057082   0.762878976885230   0.111053703367069   1.0000000
N2   N   0.095487245296872   0.904514156621126   0.110978810317221   1.0000000
N2   N   0.093926031553783   0.046693972062657   0.110995136267146   1.0000000
N2   N   0.092742690531123   0.189218729824706   0.111001213836287   1.0000000
N2   N   0.093542868711928   0.332967504458128   0.110989627618208   1.0000000
N2   N   0.095294379281327   0.476148606658992   0.110997483690935   1.0000000
N2   N   0.095993313441929   0.618944798470041   0.111017431077632   1.0000000
N2   N   0.096036640939813   0.761762203428433   0.110991250050381   1.0000000
N2   N   0.238239198489573   0.903964760978186   0.110991250050381   1.0000000
N2   N   0.237122425032776   0.046228783860925   0.111053703367069   1.0000000
N2   N   0.234237574161033   0.187083280023834   0.111020756878092   1.0000000
N2   N   0.233408943570393   0.329875806392349   0.110989378206097   1.0000000
N2   N   0.238323943481037   0.475085247948742   0.111015582678903   1.0000000
N2   N   0.239110694656267   0.618338643325696   0.111072084114954   1.0000000
N2   N   0.238774669943659   0.761226731974347   0.111025892301919   1.0000000
N2   N   0.381056603447956   0.904008088476070   0.111017431077632   1.0000000
N2   N   0.380355919528523   0.046699170520587   0.111032903979911   1.0000000
N2   N   0.378920728051262   0.188534536179346   0.111018502003908   1.0000000
N2   N   0.373243910702710   0.326662932177581   0.110937903255314   1.0000000
N2   N   0.376837819448835   0.469160819704477   0.110942091970152   1.0000000
N2   N   0.382603727411436   0.617397674506564   0.111065770838371   1.0000000
N2   N   0.381662758592302   0.760890707261737   0.111072084114954   1.0000000
N2   N   0.523852795258005   0.904707022636672   0.110997483690935   1.0000000
N2   N   0.523225759597716   0.047834050067019   0.110953219752420   1.0000000
N2   N   0.522484429866616   0.190952846450880   0.110980050618961   1.0000000
N2   N   0.521130852187448   0.334407446101855   0.110975207440640   1.0000000
N2   N   0.530840582212520   0.623163582469163   0.110942091970152   1.0000000
N2   N   0.524916153968255   0.761677458436969   0.111015582678903   1.0000000
N2   N   0.667033897458870   0.906458533206071   0.110989627618208   1.0000000
N2   N   0.666063016729884   0.048760480520510   0.110985836547221   1.0000000
N2   N   0.665446769115798   0.191809953578352   0.111007457649011   1.0000000
N2   N   0.664720995379391   0.335280406537606   0.111003086188360   1.0000000
N2   N   0.665593955815141   0.478870549729548   0.110975207440640   1.0000000
N2   N   0.673338469739417   0.626757491215289   0.110937903255314   1.0000000
N2   N   0.670125595524647   0.766592458347612   0.110989378206097   1.0000000
N2   N   0.810782672093293   0.907258711386874   0.111001213836287   1.0000000
N2   N   0.809042182086015   0.048926007454663   0.111014334000866   1.0000000
N2   N   0.808403136329063   0.191598265588935   0.111058638863152   1.0000000
N2   N   0.808191448339647   0.334554632801199   0.111007457649011   1.0000000
N2   N   0.809048555467119   0.477516972050382   0.110980050618961   1.0000000
N2   N   0.811466865738653   0.621080673866736   0.111018502003908   1.0000000
N2   N   0.812918121894164   0.765763827756973   0.111020756878092   1.0000000
As2   As   0.494912197915095   0.505089823281903   0.111879902834031   1.0000000


