data_1
_audit_creation_method   'vasp2cif'
_cell_length_a    17.52789999999977
_cell_length_b    17.52789999999977
_cell_length_c    15.0
_cell_angle_alpha    90.0
_cell_angle_beta    90.0
_cell_angle_gamma    119.99999999999916

_symmetry_space_group_name_H-M    'P 1'
loop_
_atom_site_label
_atom_site_type_symbol
_atom_site_fract_x
_atom_site_fract_y
_atom_site_fract_z
_atom_site_occupancy
B2   B   0.904646566313026   0.952487356014290   0.110975935007670   1.0000000
B2   B   0.904849880223347   0.095315186139273   0.110989900597303   1.0000000
B2   B   0.904794979759400   0.238022805844915   0.110991854412558   1.0000000
B2   B   0.904536798637246   0.380675388400660   0.110944162424945   1.0000000
B2   B   0.904580820428610   0.523674011146896   0.110986667226900   1.0000000
B2   B   0.909138792394522   0.668895833240071   0.111174965118530   1.0000000
B2   B   0.904339210971042   0.809263505582420   0.111016539005722   1.0000000
B2   B   0.047873544723966   0.952727593522244   0.110963545395079   1.0000000
B2   B   0.047877894602759   0.095502962199252   0.110944294236387   1.0000000
B2   B   0.047902705187599   0.238165529084228   0.110953141626647   1.0000000
B2   B   0.047806004225730   0.380839162212306   0.110976509395605   1.0000000
B2   B   0.047698115674029   0.523758794581483   0.110994717203924   1.0000000
B2   B   0.049173111884367   0.667010120941551   0.111060969374023   1.0000000
B2   B   0.049184697083591   0.810847146674142   0.111004154644869   1.0000000
B2   B   0.191103734009586   0.953000556078611   0.110969351798925   1.0000000
B2   B   0.191112610455996   0.095941567228488   0.110980991890237   1.0000000
B2   B   0.191048261706540   0.238478779110712   0.110982583501117   1.0000000
B2   B   0.191116264183897   0.380901933773981   0.110993226089271   1.0000000
B2   B   0.190396604615309   0.523725300121825   0.111040115399155   1.0000000
B2   B   0.191034500712247   0.666813601402443   0.111066063834943   1.0000000
B2   B   0.191156895093482   0.809956549140702   0.110997252882042   1.0000000
B2   B   0.333620648774801   0.952591620593699   0.110976278393206   1.0000000
B2   B   0.333370006140579   0.095191139541216   0.111016523890925   1.0000000
B2   B   0.334607429640393   0.238908524881690   0.111057940517825   1.0000000
B2   B   0.334965777857580   0.381591333800600   0.111068397881958   1.0000000
B2   B   0.332961695661901   0.523890043554640   0.111067355745817   1.0000000
B2   B   0.333284747210194   0.666830645420059   0.111079793502422   1.0000000
B2   B   0.333581159670990   0.809771166127473   0.111054771973813   1.0000000
B2   B   0.476275131011996   0.952608143214675   0.110942746096543   1.0000000
B2   B   0.476159921594558   0.095364547940461   0.110900788972315   1.0000000
B2   B   0.475327074147385   0.237626753448525   0.111017995707242   1.0000000
B2   B   0.475354411511754   0.524390187330993   0.111231893488314   1.0000000
B2   B   0.475573940840039   0.667063940516921   0.111038052480226   1.0000000
B2   B   0.476163819248844   0.809832976685920   0.111033033675320   1.0000000
B2   B   0.618987169774460   0.952369084166541   0.110977643709727   1.0000000
B2   B   0.618934704753954   0.095251024363993   0.110896659380128   1.0000000
B2   B   0.618504860198856   0.237945927194861   0.110985494198693   1.0000000
B2   B   0.616838702635089   0.380352271052792   0.111075448819637   1.0000000
B2   B   0.617084084685718   0.665142225720378   0.111063572210077   1.0000000
B2   B   0.618734660671828   0.809198500133495   0.110988165997095   1.0000000
B2   B   0.761752358863845   0.952655251565545   0.110971348166579   1.0000000
B2   B   0.761842703362656   0.095201891263272   0.110989251202746   1.0000000
B2   B   0.761653288971037   0.237598341528466   0.110973957391497   1.0000000
B2   B   0.760998725557076   0.379506880014731   0.110984877720712   1.0000000
B2   B   0.759428384550829   0.519748814673321   0.111184293869261   1.0000000
B2   B   0.758596703222643   0.667341324111158   0.111206633958966   1.0000000
B2   B   0.761165516692791   0.810174862493414   0.110986472132514   1.0000000
C2   C   0.477328465028405   0.381353271824586   0.111348582052175   1.0000000
C2   C   0.525776602391824   0.473947142470406   0.111484171513315   1.0000000
C2   C   0.617584131503930   0.522014458317831   0.111281025927685   1.0000000
C2   C   0.809654235922720   0.619068931784952   0.111365275454340   1.0000000
N2   N   0.952232835157712   0.904680334398628   0.110998779682472   1.0000000
N2   N   0.952543435341646   0.047759586096743   0.110954617708558   1.0000000
N2   N   0.952575333750449   0.190556218356530   0.110960697904545   1.0000000
N2   N   0.952422654942056   0.333264436667684   0.110963940771137   1.0000000
N2   N   0.952178328458676   0.476058496777150   0.110937899715978   1.0000000
N2   N   0.954446835321250   0.619447123962496   0.111068550252850   1.0000000
N2   N   0.954442277563369   0.763592037302495   0.111008620921044   1.0000000
N2   N   0.096164791906192   0.905767892426252   0.110942068821746   1.0000000
N2   N   0.095677909108050   0.048097959179448   0.110911151743276   1.0000000
N2   N   0.095685612308495   0.190735583528341   0.110943086960590   1.0000000
N2   N   0.095689402125607   0.333351220069675   0.110945339079314   1.0000000
N2   N   0.095182399470174   0.476050736463638   0.110970159019400   1.0000000
N2   N   0.096078685254643   0.619031043566703   0.111040456559575   1.0000000
N2   N   0.096152058729835   0.762421021087348   0.111012967513826   1.0000000
N2   N   0.238544836002336   0.905164741358720   0.110946119917289   1.0000000
N2   N   0.238416771153182   0.048051383542853   0.111013622826155   1.0000000
N2   N   0.239201682814812   0.191502821809865   0.110983602667240   1.0000000
N2   N   0.239313550662573   0.333525899746369   0.111001238160054   1.0000000
N2   N   0.237948415139879   0.476090964606523   0.111023688518478   1.0000000
N2   N   0.238234356702784   0.619001142921883   0.111036046478440   1.0000000
N2   N   0.238501675917853   0.762107335060014   0.111030351196748   1.0000000
N2   N   0.381150450010232   0.904967600920539   0.110992236873499   1.0000000
N2   N   0.381069778134339   0.047716204464446   0.110936929287484   1.0000000
N2   N   0.380670930458932   0.190064308627922   0.111021038506100   1.0000000
N2   N   0.384229024860684   0.334667601714358   0.111105348063341   1.0000000
N2   N   0.380635562564810   0.476431795801602   0.111067143376616   1.0000000
N2   N   0.380563120937035   0.619111637463529   0.111060383196390   1.0000000
N2   N   0.380997056071396   0.762073217183914   0.111054766926755   1.0000000
N2   N   0.523816721744181   0.905003257977021   0.110984499884129   1.0000000
N2   N   0.523801601876196   0.047814697016715   0.110838029301383   1.0000000
N2   N   0.523550124242537   0.190619611109762   0.110941827079726   1.0000000
N2   N   0.521398648950627   0.332479137669343   0.111054655885405   1.0000000
N2   N   0.522525287287781   0.619176251517039   0.111057489537782   1.0000000
N2   N   0.523546092549999   0.762156536463936   0.110978048233768   1.0000000
N2   N   0.666500737191255   0.904632232560283   0.110986148024769   1.0000000
N2   N   0.666606091452962   0.047651419591431   0.110931782401413   1.0000000
N2   N   0.666389825701974   0.190498462512902   0.110924249310558   1.0000000
N2   N   0.665324162463069   0.333266613146738   0.111060785678387   1.0000000
N2   N   0.664790788624989   0.475529690787832   0.111123091465117   1.0000000
N2   N   0.663461815786865   0.615967699388208   0.111141659461255   1.0000000
N2   N   0.665958747977623   0.761072624775205   0.111000670008361   1.0000000
N2   N   0.809325912760339   0.905272949648537   0.110937201363455   1.0000000
N2   N   0.809552632528871   0.047810072086036   0.110973744450008   1.0000000
N2   N   0.809486884043972   0.190322230007949   0.110971714893630   1.0000000
N2   N   0.809086431196548   0.332533323673073   0.110941408142220   1.0000000
N2   N   0.808464171676689   0.474040704280870   0.110936361962944   1.0000000
N2   N   0.808064362382557   0.762411098797378   0.110990393169834   1.0000000


