data_1
_audit_creation_method   'vasp2cif'
_cell_length_a    17.52789999999977
_cell_length_b    17.52789999999977
_cell_length_c    15.0
_cell_angle_alpha    90.0
_cell_angle_beta    90.0
_cell_angle_gamma    119.99999999999916

_symmetry_space_group_name_H-M    'P 1'
loop_
_atom_site_label
_atom_site_type_symbol
_atom_site_fract_x
_atom_site_fract_y
_atom_site_fract_z
_atom_site_occupancy
B2   B   0.905782216833077   0.955288871788139   0.110552977617734   1.0000000
B2   B   0.903312251400598   0.096689769795394   0.111197146822056   1.0000000
B2   B   0.902966167799485   0.239183967178658   0.111818847535358   1.0000000
B2   B   0.904367314300170   0.382210410866123   0.111953565813195   1.0000000
B2   B   0.906893718703184   0.525691058708065   0.109831231775265   1.0000000
B2   B   0.909827296262175   0.670735255675423   0.109991002345555   1.0000000
B2   B   0.910166031450211   0.814998211943787   0.108794999887013   1.0000000
B2   B   0.047619841998777   0.952382179197231   0.111055624024535   1.0000000
B2   B   0.044713149407868   0.094219804362915   0.110552977617734   1.0000000
B2   B   0.044148427579327   0.237718427488947   0.110419722556066   1.0000000
B2   B   0.045470409286787   0.381293038350452   0.111027978207208   1.0000000
B2   B   0.048077218256798   0.524418913464299   0.110842595482860   1.0000000
B2   B   0.049669839463285   0.667390150460569   0.110565747907791   1.0000000
B2   B   0.049817964243074   0.810449638972450   0.110583988983345   1.0000000
B2   B   0.189552382223556   0.950184056952932   0.110583988983345   1.0000000
B2   B   0.185003809252219   0.089835989745781   0.108794999887013   1.0000000
B2   B   0.183250208991068   0.233413399302206   0.108494341609360   1.0000000
B2   B   0.185362027042831   0.379413270963118   0.109713100213743   1.0000000
B2   B   0.189722405796429   0.523318885348749   0.110860149839399   1.0000000
B2   B   0.191685978338420   0.666198882600900   0.111086206816694   1.0000000
B2   B   0.191344604570044   0.808657416625962   0.111149742640665   1.0000000
B2   B   0.332611870736426   0.950332181732720   0.110565747907791   1.0000000
B2   B   0.329266765521575   0.090174724933812   0.109991002345555   1.0000000
B2   B   0.320720935885030   0.225929906902582   0.111145992805133   1.0000000
B2   B   0.320520964057561   0.373757190494838   0.112248312031885   1.0000000
B2   B   0.331360559195342   0.520649984071080   0.110873330360399   1.0000000
B2   B   0.334685655118904   0.665316366078101   0.110923105236872   1.0000000
B2   B   0.333803138596095   0.808316042857581   0.111086206816694   1.0000000
B2   B   0.475583107732691   0.951924802939208   0.110842595482860   1.0000000
B2   B   0.474310962488941   0.093108302492813   0.109831231775265   1.0000000
B2   B   0.469401034608270   0.230343498679450   0.113927633995421   1.0000000
B2   B   0.447479247167105   0.359971453815472   0.122119432674973   1.0000000
B2   B   0.479352037125913   0.668641462001664   0.110873330360399   1.0000000
B2   B   0.476683135848241   0.810279615399574   0.110860149839399   1.0000000
B2   B   0.618708982845552   0.954531611909215   0.111027978207209   1.0000000
B2   B   0.617791610329870   0.095634706895834   0.111953565813195   1.0000000
B2   B   0.617467760587616   0.236995769363074   0.109205602104489   1.0000000
B2   B   0.622670365398773   0.377331655797233   0.082993714826880   1.0000000
B2   B   0.640030567380532   0.552522774029900   0.122119432674973   1.0000000
B2   B   0.626244830701169   0.679481057139445   0.112248312031885   1.0000000
B2   B   0.620588750232888   0.814639994153169   0.109713100213743   1.0000000
B2   B   0.762283593707052   0.955853593616686   0.110419722556066   1.0000000
B2   B   0.760818054017341   0.097035853396515   0.111818847535358   1.0000000
B2   B   0.760771786277679   0.239230234918321   0.112520861463380   1.0000000
B2   B   0.763006251832935   0.382534260608389   0.109205602104489   1.0000000
B2   B   0.769658522516552   0.530600986588726   0.113927633995421   1.0000000
B2   B   0.774072114293426   0.679281085311964   0.111145992805133   1.0000000
B2   B   0.766588621893804   0.816751812204932   0.108494341609360   1.0000000
N2   N   0.954249392397412   0.908248554732323   0.110617068988888   1.0000000
N2   N   0.950899824494898   0.049101577423114   0.111158912075898   1.0000000
N2   N   0.949819779900420   0.191210314272924   0.111184307652204   1.0000000
N2   N   0.950715867909835   0.334091269852092   0.111772038914862   1.0000000
N2   N   0.953022397715265   0.477265203847209   0.110721544437317   1.0000000
N2   N   0.954925757333197   0.620868307593143   0.110031488401177   1.0000000
N2   N   0.955823030044108   0.765201398705704   0.109333552836630   1.0000000
N2   N   0.095360868925609   0.904640532992390   0.111218515443021   1.0000000
N2   N   0.091752847185679   0.045752009520593   0.110617068988887   1.0000000
N2   N   0.089850887458444   0.188293442720511   0.109746122545779   1.0000000
N2   N   0.091082029020764   0.332539139507364   0.110292009736330   1.0000000
N2   N   0.094470578181458   0.476263282221533   0.111031662428090   1.0000000
N2   N   0.096496995674252   0.619352647494089   0.110762971040767   1.0000000
N2   N   0.096657794151343   0.762166644704784   0.110959335485406   1.0000000
N2   N   0.237834757213220   0.903343607766662   0.110959335485406   1.0000000
N2   N   0.234800003212301   0.044178371873894   0.109333552836630   1.0000000
N2   N   0.228312527808929   0.182742304821010   0.107214310607713   1.0000000
N2   N   0.227893080585172   0.327709830101896   0.108957497946942   1.0000000
N2   N   0.235480690315779   0.474689729496626   0.110421049790085   1.0000000
N2   N   0.238945216391754   0.618456105762512   0.111110062048244   1.0000000
N2   N   0.238850382555147   0.761151019362860   0.111199166510376   1.0000000
N2   N   0.380648754423908   0.903504406243754   0.110762971040767   1.0000000
N2   N   0.379133094324856   0.045075644584811   0.110031488401177   1.0000000
N2   N   0.374282534519708   0.184062222612109   0.111787120774442   1.0000000
N2   N   0.359572407345342   0.317775647272383   0.115980074617568   1.0000000
N2   N   0.371250196808393   0.466876343329003   0.112191598111733   1.0000000
N2   N   0.382438418813283   0.617562983104712   0.110636663442015   1.0000000
N2   N   0.381545296155494   0.761056185526257   0.111110062048244   1.0000000
N2   N   0.523738119695461   0.905530823736545   0.111031662428090   1.0000000
N2   N   0.522736198069792   0.046979004202742   0.110721544437317   1.0000000
N2   N   0.521460969206421   0.188034810897600   0.109305138349233   1.0000000
N2   N   0.512237032133773   0.323280853892138   0.119986507298496   1.0000000
N2   N   0.533125058587997   0.628751205109610   0.112191598111733   1.0000000
N2   N   0.525311672420361   0.764520711602228   0.110421049790085   1.0000000
N2   N   0.667462262409638   0.908919372897241   0.110292009736330   1.0000000
N2   N   0.665910132064903   0.049285534008165   0.111772038914862   1.0000000
N2   N   0.665436462647884   0.190694886936109   0.112598414034125   1.0000000
N2   N   0.667803440977367   0.332197960939635   0.104402758143002   1.0000000
N2   N   0.676720548024858   0.487764369783218   0.119986507298496   1.0000000
N2   N   0.682225754644612   0.640428994572655   0.115980074617568   1.0000000
N2   N   0.672291571815109   0.772108321332832   0.108957497946942   1.0000000
N2   N   0.811707959197483   0.910150514459544   0.109746122545779   1.0000000
N2   N   0.808791087645078   0.050181622017582   0.111184307652204   1.0000000
N2   N   0.808107825746947   0.191893576171053   0.112255826026995   1.0000000
N2   N   0.809306514981890   0.334564939269112   0.112598414034125   1.0000000
N2   N   0.811966591020399   0.478540432710574   0.109305138349233   1.0000000
N2   N   0.815939179305884   0.625718867398294   0.111787120774442   1.0000000
N2   N   0.817259097096988   0.771688874109079   0.107214310607713   1.0000000
Al2   Al   0.488087899121405   0.511914122075594   0.117198745594604   1.0000000
Al2   Al   0.561108589316128   0.438892812600875   0.117927944531846   1.0000000


