data_1
_audit_creation_method   'vasp2cif'
_cell_length_a    17.52789999999977
_cell_length_b    17.52789999999977
_cell_length_c    15.0
_cell_angle_alpha    90.0
_cell_angle_beta    90.0
_cell_angle_gamma    119.99999999999916

_symmetry_space_group_name_H-M    'P 1'
loop_
_atom_site_label
_atom_site_type_symbol
_atom_site_fract_x
_atom_site_fract_y
_atom_site_fract_z
_atom_site_occupancy
B2   B   0.906007239648301   0.952484511813023   0.111012931626743   1.0000000
B2   B   0.904833931981489   0.094564359396476   0.111045954627401   1.0000000
B2   B   0.904510568408404   0.237431621538320   0.111035349242280   1.0000000
B2   B   0.904234964432255   0.380442220303645   0.110996105503164   1.0000000
B2   B   0.903959361649775   0.523463448533701   0.111013071118411   1.0000000
B2   B   0.905037191222007   0.666770022805974   0.111079692976977   1.0000000
B2   B   0.908007003361425   0.810846898705194   0.111070260279366   1.0000000
B2   B   0.049241279056477   0.952989376112931   0.111034226017352   1.0000000
B2   B   0.048215102210310   0.095103248387393   0.111001016629472   1.0000000
B2   B   0.047522335678778   0.237487895213310   0.110978575307634   1.0000000
B2   B   0.047163075804851   0.380121643392335   0.110990910615105   1.0000000
B2   B   0.047009884494743   0.523139787527199   0.110992942312579   1.0000000
B2   B   0.047408096041456   0.666396820944045   0.111042731710502   1.0000000
B2   B   0.048942903081779   0.809793591106295   0.111091398707467   1.0000000
B2   B   0.191500242760624   0.952738450775383   0.111060835792869   1.0000000
B2   B   0.191357735746551   0.095505607514511   0.111038756691016   1.0000000
B2   B   0.190635354180809   0.237802294571742   0.110981978080510   1.0000000
B2   B   0.190292425646373   0.380130512624385   0.110991390537589   1.0000000
B2   B   0.189899991403424   0.522711818306716   0.111079117703964   1.0000000
B2   B   0.189632227770943   0.666375670581773   0.111093192713038   1.0000000
B2   B   0.190884156360572   0.809649481357153   0.111047034697191   1.0000000
B2   B   0.333912776370199   0.952797376680693   0.111044140684307   1.0000000
B2   B   0.334167408419618   0.095687822961492   0.111095450276256   1.0000000
B2   B   0.333744016974747   0.238300655800498   0.111089601311047   1.0000000
B2   B   0.334021603214539   0.381137700414080   0.111009393350639   1.0000000
B2   B   0.333992932337446   0.521753596184961   0.111106616946512   1.0000000
B2   B   0.331002444922881   0.666706886119564   0.111103882836729   1.0000000
B2   B   0.333062910830822   0.809910176053723   0.111105305609641   1.0000000
B2   B   0.476460122368408   0.952848056283850   0.110997878544250   1.0000000
B2   B   0.476814814159229   0.095793484247375   0.111007832141951   1.0000000
B2   B   0.476685830554965   0.238997904626474   0.111094480909077   1.0000000
B2   B   0.475732658924612   0.382890026549337   0.111022839213035   1.0000000
B2   B   0.469705641211561   0.669318886355747   0.111275033912757   1.0000000
B2   B   0.475293573139658   0.810407919870775   0.111001596135441   1.0000000
B2   B   0.619154393827617   0.951048939881731   0.110953411475104   1.0000000
B2   B   0.619374731253243   0.094966225731674   0.110986195090375   1.0000000
B2   B   0.619244838908678   0.238716441724474   0.111034770304475   1.0000000
B2   B   0.618410835526040   0.382516494751440   0.111013611119616   1.0000000
B2   B   0.612542712688004   0.523455090575793   0.110972571038737   1.0000000
B2   B   0.617918895768193   0.806273090111877   0.110918924055422   1.0000000
B2   B   0.762128087696546   0.951208528275688   0.110975663510087   1.0000000
B2   B   0.761903127423423   0.094444093949004   0.111041970779819   1.0000000
B2   B   0.761783683815881   0.237815925373579   0.111066110943947   1.0000000
B2   B   0.761286358680219   0.381048653966593   0.111037640808463   1.0000000
B2   B   0.760249676316464   0.523919131829700   0.111037406753096   1.0000000
B2   B   0.764992173359461   0.669554180691373   0.110987214207815   1.0000000
B2   B   0.765665916809245   0.809972774630046   0.110916823372283   1.0000000
N2   N   0.953853390857713   0.905246910185206   0.111019085802634   1.0000000
N2   N   0.952602785402883   0.047078842910772   0.111015675442956   1.0000000
N2   N   0.951921784595492   0.189529539085176   0.111010750763797   1.0000000
N2   N   0.951764930300835   0.332625585219105   0.110977418624946   1.0000000
N2   N   0.951689361924641   0.475821934926484   0.110955682815175   1.0000000
N2   N   0.952082083009614   0.618938383819194   0.111027292583904   1.0000000
N2   N   0.953600880775620   0.762087915748324   0.111092624509060   1.0000000
N2   N   0.096173349023326   0.904820941427217   0.111051577040911   1.0000000
N2   N   0.095915935796863   0.047573803066922   0.110991044981060   1.0000000
N2   N   0.094981621291340   0.189785921789441   0.110956995083438   1.0000000
N2   N   0.094550311289220   0.332502800001641   0.110952163270769   1.0000000
N2   N   0.094550476895464   0.475521463276345   0.110988199202617   1.0000000
N2   N   0.094618148690011   0.618636290939154   0.111016695417276   1.0000000
N2   N   0.095705957126340   0.761742716884693   0.111036791824816   1.0000000
N2   N   0.238715402243282   0.904762343324712   0.111030808191024   1.0000000
N2   N   0.238791715473014   0.047572621847359   0.111055058000217   1.0000000
N2   N   0.238128954324731   0.189973089544195   0.111024906971746   1.0000000
N2   N   0.237207001082993   0.332269638991242   0.110959018046933   1.0000000
N2   N   0.237391825630155   0.475546323287812   0.111060990904587   1.0000000
N2   N   0.236816272632120   0.618682453324455   0.111102073161993   1.0000000
N2   N   0.238073685478765   0.761803460579313   0.111072888366951   1.0000000
N2   N   0.381372971032652   0.904912434928617   0.111040702519512   1.0000000
N2   N   0.381632257055713   0.047709576842993   0.111027740733556   1.0000000
N2   N   0.381423736878302   0.190352396565544   0.111112195959745   1.0000000
N2   N   0.380322295526635   0.332161407276736   0.111034421300387   1.0000000
N2   N   0.377015927165212   0.473260213982265   0.110989020800805   1.0000000
N2   N   0.378991602526974   0.619354158936751   0.111077251788275   1.0000000
N2   N   0.380558069355900   0.762064003193950   0.111095660959462   1.0000000
N2   N   0.524012436420408   0.904678575665254   0.110971267532393   1.0000000
N2   N   0.524283838944139   0.047633626034826   0.110940175977896   1.0000000
N2   N   0.524257132873417   0.190771455607550   0.111028539252016   1.0000000
N2   N   0.523814536111509   0.333913392963824   0.111030851940610   1.0000000
N2   N   0.521999055853462   0.475750526640136   0.110937315830253   1.0000000
N2   N   0.522842615572107   0.761483112673236   0.110954788613993   1.0000000
N2   N   0.666210332695560   0.901301889990132   0.110908504710815   1.0000000
N2   N   0.666635097103932   0.046197128261019   0.110970287091319   1.0000000
N2   N   0.666716511668233   0.190220073944500   0.111028288369897   1.0000000
N2   N   0.666477280715200   0.334163722659631   0.111017041057192   1.0000000
N2   N   0.665662565411526   0.478767012641718   0.110977074253956   1.0000000
N2   N   0.623986326077262   0.669074981953721   0.110919086772744   1.0000000
N2   N   0.666869806364413   0.625996488064348   0.110961808931982   1.0000000
N2   N   0.668570011241779   0.757410456703788   0.110857545696870   1.0000000
N2   N   0.810154329157312   0.904021327529096   0.110932702889038   1.0000000
N2   N   0.809126754409214   0.046105608963946   0.111024593909587   1.0000000
N2   N   0.809163470152657   0.189577514918256   0.111052491286657   1.0000000
N2   N   0.809071369257208   0.333111180345720   0.111031611316607   1.0000000
N2   N   0.808655292484798   0.476588884748273   0.111023942090068   1.0000000
N2   N   0.809327765982941   0.619934447461267   0.111022836431503   1.0000000
N2   N   0.812478921098080   0.763267950155117   0.110984223809513   1.0000000


