data_1
_audit_creation_method   'vasp2cif'
_cell_length_a    17.52789999999977
_cell_length_b    17.52789999999977
_cell_length_c    15.0
_cell_angle_alpha    90.0
_cell_angle_beta    90.0
_cell_angle_gamma    119.99999999999916

_symmetry_space_group_name_H-M    'P 1'
loop_
_atom_site_label
_atom_site_type_symbol
_atom_site_fract_x
_atom_site_fract_y
_atom_site_fract_z
_atom_site_occupancy
B2   B   0.904846717191588   0.953126385866470   0.110957241214119   1.0000000
B2   B   0.906052439971148   0.096987234749645   0.111004229585356   1.0000000
B2   B   0.906150489882409   0.239971868424750   0.111065065010612   1.0000000
B2   B   0.905293941672086   0.382414991514167   0.111053415097950   1.0000000
B2   B   0.902899896928400   0.523887420534740   0.110986316655821   1.0000000
B2   B   0.900351040182536   0.665373409644708   0.111012590107917   1.0000000
B2   B   0.902779761088847   0.808839497340323   0.111034443967857   1.0000000
B2   B   0.046417532870653   0.951201621047532   0.110938414833550   1.0000000
B2   B   0.047547964997007   0.094981970354063   0.110955477518688   1.0000000
B2   B   0.049041588346083   0.239164822521752   0.111015033871142   1.0000000
B2   B   0.049528233364842   0.382334976494755   0.111027432652605   1.0000000
B2   B   0.048454519745592   0.524388979853756   0.111002993996492   1.0000000
B2   B   0.046427356843839   0.665798328269139   0.110979590264538   1.0000000
B2   B   0.045682102454362   0.807805806683238   0.110978699142562   1.0000000
B2   B   0.188974194903244   0.950112960967329   0.111029556173046   1.0000000
B2   B   0.189435875622099   0.093252324231906   0.111069026949042   1.0000000
B2   B   0.190228009101506   0.236486398779087   0.111003836810839   1.0000000
B2   B   0.193124742572042   0.381628656949183   0.110960614231556   1.0000000
B2   B   0.193515667544117   0.524581648736852   0.110987301444457   1.0000000
B2   B   0.192490929145052   0.666248342742382   0.111021137756775   1.0000000
B2   B   0.189982766690397   0.808064773695738   0.110977293860890   1.0000000
B2   B   0.332962682225552   0.950733112834895   0.111016559542707   1.0000000
B2   B   0.331713761070811   0.091837110819192   0.111113017758247   1.0000000
B2   B   0.332152502488118   0.233582072757482   0.111154522270417   1.0000000
B2   B   0.333279821245010   0.376963094040535   0.111040560354174   1.0000000
B2   B   0.338535109639680   0.525805704763294   0.110934943453149   1.0000000
B2   B   0.339393418805968   0.666842121135617   0.111064122464378   1.0000000
B2   B   0.334283113362553   0.808752824959779   0.111022509943173   1.0000000
B2   B   0.476794292391802   0.952954250845452   0.110938704616511   1.0000000
B2   B   0.476006299887644   0.094661902521943   0.111014797909466   1.0000000
B2   B   0.473910694809581   0.234384634102424   0.111160145702076   1.0000000
B2   B   0.491084415319269   0.671577199043229   0.111064859626644   1.0000000
B2   B   0.477999063633467   0.811127039533146   0.111033955240974   1.0000000
B2   B   0.620358436578465   0.955693841795562   0.110909456213331   1.0000000
B2   B   0.619725152509711   0.097137601311658   0.110922693085215   1.0000000
B2   B   0.619198892964851   0.239306356616629   0.111040637058604   1.0000000
B2   B   0.619186859801788   0.384124513793150   0.111084518264844   1.0000000
B2   B   0.608467485726086   0.672114342433059   0.111094663772279   1.0000000
B2   B   0.621991659815263   0.816059938527996   0.110980346129039   1.0000000
B2   B   0.763752547482792   0.955532963761147   0.110936131712038   1.0000000
B2   B   0.763208957705143   0.097644290122638   0.110959686967827   1.0000000
B2   B   0.762611341400263   0.240027112576921   0.111035684798697   1.0000000
B2   B   0.760846106383393   0.382256842170947   0.111035484554533   1.0000000
B2   B   0.755373618794706   0.522920630456667   0.110987164774021   1.0000000
B2   B   0.755116893222774   0.666404248974522   0.111063771193743   1.0000000
B2   B   0.761590614658617   0.811659204163716   0.111050027615752   1.0000000
C2   C   0.474559859860956   0.373293670816859   0.111374208620844   1.0000000
C2   C   0.468376684652059   0.501886594548794   0.111206521737257   1.0000000
C2   C   0.512855931899987   0.463975177037786   0.111657210227132   1.0000000
N2   N   0.951495733656292   0.904542206476045   0.110944129128579   1.0000000
N2   N   0.952894080623090   0.048507554202985   0.110930604704228   1.0000000
N2   N   0.954029810594657   0.192264056410279   0.111023604638399   1.0000000
N2   N   0.954096983183795   0.335131353442421   0.111044485497007   1.0000000
N2   N   0.952852612375770   0.477375603461594   0.110987668113427   1.0000000
N2   N   0.950617921786729   0.619029865769450   0.110965174479117   1.0000000
N2   N   0.950288679617391   0.761005585413945   0.111004743628623   1.0000000
N2   N   0.093884184636719   0.903291738766250   0.110951840270271   1.0000000
N2   N   0.094671818054084   0.046790219044203   0.110938326876066   1.0000000
N2   N   0.095792609861442   0.190412782253460   0.110963757358116   1.0000000
N2   N   0.097840126362414   0.334695711816450   0.110981447197690   1.0000000
N2   N   0.097823136359781   0.477491560084129   0.110990131333698   1.0000000
N2   N   0.096496161278426   0.619400969399929   0.110979384340849   1.0000000
N2   N   0.094558292723462   0.761013637765913   0.110954360701516   1.0000000
N2   N   0.237597688485744   0.903342704815190   0.110975016490650   1.0000000
N2   N   0.236847898814178   0.045515906614202   0.111079032560815   1.0000000
N2   N   0.237830676905496   0.188901741841151   0.111068979207983   1.0000000
N2   N   0.239189819193199   0.331730426467232   0.110962301973882   1.0000000
N2   N   0.242706069807113   0.477420484696041   0.110920177437401   1.0000000
N2   N   0.242657491302331   0.619516892369139   0.111008648442903   1.0000000
N2   N   0.239013714770621   0.761293167508016   0.110999450966745   1.0000000
N2   N   0.381438512820772   0.904075577953941   0.110965285637173   1.0000000
N2   N   0.380526944371879   0.046006093235058   0.111043545611658   1.0000000
N2   N   0.379404430160834   0.187009987765254   0.111180308128732   1.0000000
N2   N   0.382661201885180   0.329608419835689   0.111164751239205   1.0000000
N2   N   0.381549658784708   0.472594931323441   0.110927673639085   1.0000000
N2   N   0.391806841644649   0.620696678629356   0.111023825352708   1.0000000
N2   N   0.383185259989425   0.761828191700807   0.111055340423205   1.0000000
N2   N   0.524993828607902   0.906360011928954   0.110922310785897   1.0000000
N2   N   0.524151418031614   0.048118776103329   0.110898267582254   1.0000000
N2   N   0.523190904057936   0.189757758543474   0.111058028877920   1.0000000
N2   N   0.519259715059446   0.329903148471930   0.111161473816491   1.0000000
N2   N   0.526978103117520   0.765265677028721   0.111028795209591   1.0000000
N2   N   0.668867623018040   0.909777472033311   0.110898449865054   1.0000000
N2   N   0.667805283506730   0.050353318715496   0.110887077588425   1.0000000
N2   N   0.667035937120771   0.191958625927263   0.110983235351007   1.0000000
N2   N   0.665135529908089   0.333461829775686   0.111049472320688   1.0000000
N2   N   0.662571053554773   0.474614621744818   0.110968220757007   1.0000000
N2   N   0.660945489620538   0.631954104409648   0.111048571458485   1.0000000
N2   N   0.666838288706139   0.767577439950783   0.111006118123462   1.0000000
N2   N   0.810185720963604   0.907076922385247   0.110968221487559   1.0000000
N2   N   0.811175962331491   0.050373695148981   0.110946992622825   1.0000000
N2   N   0.810829249520608   0.192639725678208   0.111010794821688   1.0000000
N2   N   0.809823791240782   0.334906492420627   0.111036982482221   1.0000000
N2   N   0.807644194693179   0.477034820272191   0.110971209727731   1.0000000
N2   N   0.804483349968921   0.619274361222866   0.111007943771311   1.0000000
N2   N   0.807550162224565   0.762931606075316   0.111066056619799   1.0000000


