data_1
_audit_creation_method   'vasp2cif'
_cell_length_a    17.52789999999977
_cell_length_b    17.52789999999977
_cell_length_c    15.0
_cell_angle_alpha    90.0
_cell_angle_beta    90.0
_cell_angle_gamma    119.99999999999916

_symmetry_space_group_name_H-M    'P 1'
loop_
_atom_site_label
_atom_site_type_symbol
_atom_site_fract_x
_atom_site_fract_y
_atom_site_fract_z
_atom_site_occupancy
B2   B   0.905033785388880   0.952814785482203   0.104908536601940   1.0000000
B2   B   0.904909817183790   0.095529107378866   0.105164414248572   1.0000000
B2   B   0.904845485121326   0.238242411529230   0.104852907991755   1.0000000
B2   B   0.904771576143815   0.381006547526818   0.104119385456339   1.0000000
B2   B   0.905324199050446   0.523926190053776   0.104042004757141   1.0000000
B2   B   0.905400344075710   0.667078288667771   0.105308213262692   1.0000000
B2   B   0.905629451187618   0.810372564414731   0.104877780702337   1.0000000
B2   B   0.047793128094896   0.952553197493700   0.103874026838994   1.0000000
B2   B   0.047666655238502   0.095372309125666   0.104256075588204   1.0000000
B2   B   0.047658279969092   0.238195396859176   0.104989330843840   1.0000000
B2   B   0.047666864955848   0.381002471234925   0.104048999094128   1.0000000
B2   B   0.047650675931356   0.523894969111968   0.103692482585687   1.0000000
B2   B   0.047812766120757   0.666821145989171   0.104183026829145   1.0000000
B2   B   0.047885649155546   0.809718055940670   0.104340218597950   1.0000000
B2   B   0.190407266087023   0.952214116210934   0.104272088880350   1.0000000
B2   B   0.190065996077662   0.094697367633995   0.104115852796815   1.0000000
B2   B   0.190301048375692   0.237971236284393   0.107702340601509   1.0000000
B2   B   0.190597453399010   0.380960450142392   0.107119596988382   1.0000000
B2   B   0.190027835373405   0.523930485879289   0.103935135508682   1.0000000
B2   B   0.190392500963246   0.666821345466574   0.104140453233210   1.0000000
B2   B   0.190476821417965   0.809561540432278   0.104776445729533   1.0000000
B2   B   0.333219312570311   0.952233929293547   0.104277836291660   1.0000000
B2   B   0.333020912682603   0.094604923897022   0.106598012637389   1.0000000
B2   B   0.331339130378777   0.235932317448162   0.117201237732222   1.0000000
B2   B   0.332824641318602   0.379971591415764   0.126718128342264   1.0000000
B2   B   0.331784533641859   0.524104893003976   0.112528962876490   1.0000000
B2   B   0.333094953735322   0.667093354449908   0.105293491761062   1.0000000
B2   B   0.333245547986827   0.809735740753018   0.104308236901373   1.0000000
B2   B   0.476182950258953   0.952564975427771   0.103849350239363   1.0000000
B2   B   0.476068094306808   0.094710317198370   0.104149367200306   1.0000000
B2   B   0.476037984062103   0.235927726208146   0.117222650007315   1.0000000
B2   B   0.462626447859141   0.353808970747376   0.177556157262741   1.0000000
B2   B   0.469701308319562   0.531174941281359   0.147502202970933   1.0000000
B2   B   0.475974123605166   0.668900262649961   0.113433085209040   1.0000000
B2   B   0.476175767037053   0.810388232374119   0.104854264298884   1.0000000
B2   B   0.619218022285293   0.952828196990773   0.104785715994348   1.0000000
B2   B   0.619134587922400   0.095383696064550   0.104210659810033   1.0000000
B2   B   0.619114130279609   0.237966354046961   0.107781250952844   1.0000000
B2   B   0.618584429745038   0.379944778386279   0.126712619455552   1.0000000
B2   B   0.632961321521775   0.531204341309391   0.147432093149156   1.0000000
B2   B   0.619974362249842   0.668548673095608   0.125062964959290   1.0000000
B2   B   0.619365956059991   0.810368871367161   0.108740441445407   1.0000000
B2   B   0.762173800200600   0.952902298135817   0.105953081830570   1.0000000
B2   B   0.762057027522386   0.095528454051497   0.105085527690013   1.0000000
B2   B   0.761991948569556   0.238201699289658   0.105008971425652   1.0000000
B2   B   0.761814285161658   0.380963782456889   0.107205121304862   1.0000000
B2   B   0.763741541998767   0.524080359006437   0.112514418375430   1.0000000
B2   B   0.764334528676238   0.668888011397504   0.113369796559181   1.0000000
B2   B   0.762415758252792   0.810358463387468   0.108781938813090   1.0000000
N2   N   0.952790747994135   0.905318665368014   0.104261454189470   1.0000000
N2   N   0.952528817812008   0.047938481300720   0.104720553502259   1.0000000
N2   N   0.952487831978595   0.190692593940766   0.105080470648195   1.0000000
N2   N   0.952428151557478   0.333422497230544   0.104285183030120   1.0000000
N2   N   0.952597675683352   0.476208202610064   0.103682996301577   1.0000000
N2   N   0.952717537099320   0.619213391756268   0.104107589571947   1.0000000
N2   N   0.952793281231960   0.762289247871521   0.104451920550424   1.0000000
N2   N   0.095305048785027   0.904839017685202   0.104129721534290   1.0000000
N2   N   0.095111269190766   0.047587667718112   0.103609706445316   1.0000000
N2   N   0.095249737085227   0.190588181755064   0.104954717538721   1.0000000
N2   N   0.095393951450352   0.333394060140461   0.104736202867507   1.0000000
N2   N   0.095031985081349   0.476211889799960   0.103592753324815   1.0000000
N2   N   0.095261662352247   0.619133199798143   0.104010405470791   1.0000000
N2   N   0.095349705498340   0.762006484474606   0.104662136284866   1.0000000
N2   N   0.238046662127662   0.904687056504363   0.104762304610097   1.0000000
N2   N   0.237881419904289   0.047295875041234   0.104363549465353   1.0000000
N2   N   0.237299499044788   0.189724400294973   0.106227780205539   1.0000000
N2   N   0.238530363241388   0.333339578443631   0.111749023997803   1.0000000
N2   N   0.237271496873061   0.476213865059061   0.105754453671193   1.0000000
N2   N   0.237906099728866   0.619225541779298   0.104031451158473   1.0000000
N2   N   0.238058582547060   0.762012854008495   0.104635305074336   1.0000000
N2   N   0.380949880715608   0.904855582481992   0.104129400556800   1.0000000
N2   N   0.380848578640532   0.047307090111745   0.104386199763592   1.0000000
N2   N   0.380461037217337   0.189479272689686   0.113444075971542   1.0000000
N2   N   0.377060459936566   0.328854101480551   0.138572548117268   1.0000000
N2   N   0.378046092004308   0.476540897733432   0.127679705098820   1.0000000
N2   N   0.380682282864593   0.619662867000658   0.109279121782002   1.0000000
N2   N   0.380917399548355   0.762307694365753   0.104433562644423   1.0000000
N2   N   0.523957170677751   0.905333319501799   0.104201772342755   1.0000000
N2   N   0.523905571495902   0.047597833028805   0.103592967586112   1.0000000
N2   N   0.523870142047165   0.189728440520748   0.106295398341923   1.0000000
N2   N   0.523235751700125   0.328854441604533   0.138556290547128   1.0000000
N2   N   0.523702847285130   0.622612354416027   0.128502836370005   1.0000000
N2   N   0.524018945665360   0.763305449025918   0.107299785894775   1.0000000
N2   N   0.666946968009658   0.905367010609864   0.105983347005256   1.0000000
N2   N   0.666843568581671   0.047949615297137   0.104588162093023   1.0000000
N2   N   0.666786883605307   0.190595008547826   0.104984920353044   1.0000000
N2   N   0.666260493718570   0.333329824856855   0.111822627197860   1.0000000
N2   N   0.669921943629823   0.476522387952722   0.127593412864541   1.0000000
N2   N   0.670328118180378   0.622620052376173   0.128422658875830   1.0000000
N2   N   0.667095943245039   0.762781467789185   0.113220424923698   1.0000000
N2   N   0.809847790868249   0.905359273280096   0.106077044707970   1.0000000
N2   N   0.809728898108899   0.048018340429446   0.105471895998982   1.0000000
N2   N   0.809652759571213   0.190695477312526   0.105052513647634   1.0000000
N2   N   0.809446101142681   0.333398939294223   0.104818492369337   1.0000000
N2   N   0.810375985186129   0.476203283734691   0.105839595586977   1.0000000
N2   N   0.810385612690036   0.619643140609257   0.109248328671920   1.0000000
N2   N   0.810703843795015   0.763300409928226   0.107305431388747   1.0000000
As2   As   0.523566262377742   0.475513399744865   0.220490897224274   1.0000000


