data_1
_audit_creation_method   'vasp2cif'
_cell_length_a    17.52789999999977
_cell_length_b    17.52789999999977
_cell_length_c    15.0
_cell_angle_alpha    90.0
_cell_angle_beta    90.0
_cell_angle_gamma    119.99999999999916

_symmetry_space_group_name_H-M    'P 1'
loop_
_atom_site_label
_atom_site_type_symbol
_atom_site_fract_x
_atom_site_fract_y
_atom_site_fract_z
_atom_site_occupancy
B2   B   0.906384131318870   0.953447723835298   0.105483178405960   1.0000000
B2   B   0.903989294271919   0.094421343955451   0.108259760639538   1.0000000
B2   B   0.903343838648688   0.236749462839554   0.108245946337292   1.0000000
B2   B   0.903724925392128   0.379784794279283   0.107617543985671   1.0000000
B2   B   0.905877654694583   0.523438685149455   0.105952333300043   1.0000000
B2   B   0.908320752981585   0.667601810989195   0.102441849540062   1.0000000
B2   B   0.908449135605261   0.811608041797915   0.101286449752715   1.0000000
B2   B   0.049064464011798   0.953209232090463   0.105410866127947   1.0000000
B2   B   0.048062422581859   0.095678534947744   0.106313215110903   1.0000000
B2   B   0.046254818555606   0.237159125637930   0.106382184318282   1.0000000
B2   B   0.045641326581694   0.379789906642641   0.105008556743024   1.0000000
B2   B   0.046444223053409   0.523209142954305   0.105516189246877   1.0000000
B2   B   0.048500097776072   0.666845574680059   0.105944308289785   1.0000000
B2   B   0.049416982533274   0.810274339581441   0.105019140306532   1.0000000
B2   B   0.191186194954424   0.952541740498273   0.106932298012693   1.0000000
B2   B   0.190369849810087   0.095037705531335   0.106632481563272   1.0000000
B2   B   0.190318450136677   0.238684567934221   0.108044362632681   1.0000000
B2   B   0.187753756754522   0.379970861685655   0.105898650346061   1.0000000
B2   B   0.186958385367403   0.523180476777041   0.103396487772304   1.0000000
B2   B   0.189329040646859   0.666433236081703   0.106345953765948   1.0000000
B2   B   0.190943401602158   0.809558257239102   0.107607940608591   1.0000000
B2   B   0.333369859638846   0.951751604017883   0.109249054778981   1.0000000
B2   B   0.333207004856098   0.094674841697701   0.110071166438794   1.0000000
B2   B   0.331160193390048   0.236405810326855   0.114413826355445   1.0000000
B2   B   0.332754648050331   0.383770855898589   0.120529949368906   1.0000000
B2   B   0.325751157862682   0.523211151652039   0.110147413394577   1.0000000
B2   B   0.330348922783548   0.666148690901143   0.107703005768937   1.0000000
B2   B   0.332949474782733   0.808838313755087   0.109904113321993   1.0000000
B2   B   0.475598173837689   0.949892787692975   0.111649585691998   1.0000000
B2   B   0.475710703573929   0.093570549548698   0.111850342452690   1.0000000
B2   B   0.475461995250474   0.236257905255355   0.119796938920826   1.0000000
B2   B   0.468973645893943   0.371604631799627   0.140301146751365   1.0000000
B2   B   0.468788344702903   0.555533029470847   0.134997965043229   1.0000000
B2   B   0.470416208345269   0.656387337521965   0.118635751336652   1.0000000
B2   B   0.475036167073148   0.804957892388336   0.113403021558158   1.0000000
B2   B   0.617803056073507   0.950265587697256   0.112483042293444   1.0000000
B2   B   0.618039965406594   0.093456693437588   0.111641091667978   1.0000000
B2   B   0.618327580162042   0.236660157358335   0.115361887707450   1.0000000
B2   B   0.619690474715271   0.380322475190565   0.125744804317241   1.0000000
B2   B   0.635022744069120   0.531539935899906   0.131807804830596   1.0000000
B2   B   0.639149700066292   0.675955949961003   0.115913230725777   1.0000000
B2   B   0.616975148347304   0.807432750225325   0.113043739187298   1.0000000
B2   B   0.761152406067851   0.951380703437365   0.109437458920639   1.0000000
B2   B   0.760659559323860   0.093697669774625   0.110535315348571   1.0000000
B2   B   0.760792070952120   0.236583230632917   0.110585068048618   1.0000000
B2   B   0.761820735923495   0.379904573523395   0.111888493061700   1.0000000
B2   B   0.766122430405473   0.524062811464751   0.109071958684883   1.0000000
B2   B   0.770784345915713   0.670422660785957   0.100411367950877   1.0000000
B2   B   0.766155135343769   0.812188162651891   0.104112921552831   1.0000000
N2   N   0.954097832061869   0.905961033631375   0.104101927768917   1.0000000
N2   N   0.952829824478380   0.048000002833232   0.106907586259263   1.0000000
N2   N   0.951198127935410   0.189394466153951   0.107833121356748   1.0000000
N2   N   0.950752151109980   0.331917572554953   0.106965828583230   1.0000000
N2   N   0.951700385989184   0.475075985318406   0.106553838314976   1.0000000
N2   N   0.953637306210711   0.618785825539063   0.104889945653205   1.0000000
N2   N   0.954398914310369   0.762655820135410   0.102340627162682   1.0000000
N2   N   0.096240134925607   0.905297915918068   0.105913736234910   1.0000000
N2   N   0.095671069370544   0.048065163088225   0.105964158484092   1.0000000
N2   N   0.095292699141154   0.190900216240069   0.106336086940522   1.0000000
N2   N   0.093280538450243   0.332128028753274   0.104886315575350   1.0000000
N2   N   0.092705859637045   0.474951162762997   0.104048504350414   1.0000000
N2   N   0.094564077278605   0.618457780517761   0.106102878146632   1.0000000
N2   N   0.095959043125757   0.762010434784478   0.106451019464506   1.0000000
N2   N   0.238432732939746   0.904706518687489   0.107864166287207   1.0000000
N2   N   0.238364084802774   0.047810660994361   0.107239469057230   1.0000000
N2   N   0.237274090228806   0.190285805604690   0.107915535577078   1.0000000
N2   N   0.238241468990581   0.334820510662988   0.110457129166585   1.0000000
N2   N   0.233056616122620   0.474601399785761   0.103584046125502   1.0000000
N2   N   0.235627715019716   0.618179629584477   0.104857007106618   1.0000000
N2   N   0.237867466856137   0.761529020893524   0.108151958498305   1.0000000
N2   N   0.380683585609960   0.903776693670304   0.110544295063876   1.0000000
N2   N   0.380797198064185   0.047084042664636   0.109920152283116   1.0000000
N2   N   0.380542638352979   0.190381073879256   0.114570633026509   1.0000000
N2   N   0.377589366713014   0.331752363384216   0.124644116629705   1.0000000
N2   N   0.377866522915713   0.481160987535547   0.123403129614270   1.0000000
N2   N   0.375677017285685   0.617326318633366   0.109522609988197   1.0000000
N2   N   0.380057848446976   0.760621525857798   0.110857723132598   1.0000000
N2   N   0.522772192668286   0.901026242736451   0.113020225918255   1.0000000
N2   N   0.523042635142628   0.045561991313759   0.111417740762811   1.0000000
N2   N   0.523203687151229   0.189285349545480   0.115280406794979   1.0000000
N2   N   0.523142799504626   0.332272898020901   0.131263656803059   1.0000000
N2   N   0.521968698341380   0.754243915243947   0.116009305987964   1.0000000
N2   N   0.665364930789219   0.902361749572344   0.111874613198601   1.0000000
N2   N   0.665425641696954   0.045583253900483   0.111584768945101   1.0000000
N2   N   0.665568209991157   0.189045872074219   0.111988718594277   1.0000000
N2   N   0.666079689407840   0.332650491356536   0.117915247241054   1.0000000
N2   N   0.671506168378892   0.476799538450651   0.122620661291335   1.0000000
N2   N   0.675633485460769   0.621931551179519   0.109604987735933   1.0000000
N2   N   0.669152690523971   0.763961623553403   0.109570641852316   1.0000000
N2   N   0.810851167785760   0.905615190412426   0.106117085973289   1.0000000
N2   N   0.808513216273880   0.046253896125185   0.109748215457127   1.0000000
N2   N   0.808155602374273   0.188912420257882   0.109706777782084   1.0000000
N2   N   0.808432729203750   0.331980792956860   0.109769281350973   1.0000000
N2   N   0.810834406466596   0.475310227261259   0.107763432325577   1.0000000
N2   N   0.813310011643029   0.619383255283391   0.101771796665894   1.0000000
N2   N   0.813355868285732   0.764212561643537   0.098863830814848   1.0000000
P2   P   0.523198219561386   0.491501466131070   0.171794050043628   1.0000000


